
OS:Version,
  {ee5f1715-390c-47b6-9e93-404bc5b497b1}, !- Handle
  3.0.1;                                  !- Version Identifier

OS:Schedule:Constant,
  {cc9f6c38-4e76-492e-ab0f-a6d58acc3020}, !- Handle
  Always On Discrete,                     !- Name
  {489848a7-5c26-4ca6-ae00-d585ded6f47b}, !- Schedule Type Limits Name
  1;                                      !- Value

OS:ScheduleTypeLimits,
  {489848a7-5c26-4ca6-ae00-d585ded6f47b}, !- Handle
  Always On Discrete Limits,              !- Name
  0,                                      !- Lower Limit Value
  1,                                      !- Upper Limit Value
  Discrete,                               !- Numeric Type
  Availability;                           !- Unit Type

OS:Site,
  {c57bbf3e-5555-4e8f-a064-f03eb5a0e42f}, !- Handle
  Ottawa=Macdonald-Cartier Intl AP_ON_CAN, !- Name
  45.317,                                 !- Latitude {deg}
  -75.667,                                !- Longitude {deg}
  -5,                                     !- Time Zone {hr}
  114.9,                                  !- Elevation {m}
  City;                                   !- Terrain

OS:SimulationControl,
  {8319685c-4a24-4d40-bf6f-d94387dacb21}, !- Handle
  Yes,                                    !- Do Zone Sizing Calculation
  Yes,                                    !- Do System Sizing Calculation
  Yes,                                    !- Do Plant Sizing Calculation
  No,                                     !- Run Simulation for Sizing Periods
  Yes,                                    !- Run Simulation for Weather File Run Periods
  0.04,                                   !- Loads Convergence Tolerance Value {W}
  0.2,                                    !- Temperature Convergence Tolerance Value {deltaC}
  FullInteriorAndExterior,                !- Solar Distribution
  25,                                     !- Maximum Number of Warmup Days
  6,                                      !- Minimum Number of Warmup Days
  Yes,                                    !- Do HVAC Sizing Simulation for Sizing Periods
  1;                                      !- Maximum Number of HVAC Sizing Simulation Passes

OS:Surface,
  {aeb5cd29-a61e-4f1d-a376-0e8c63c45f3b}, !- Handle
  Room_2_Flr_6_Ceiling,                   !- Name
  RoofCeiling,                            !- Surface Type
  ,                                       !- Construction Name
  {735c6fa8-525c-45a3-82b3-b38ec3245a8f}, !- Space Name
  Outdoors,                               !- Outside Boundary Condition
  ,                                       !- Outside Boundary Condition Object
  SunExposed,                             !- Sun Exposure
  WindExposed,                            !- Wind Exposure
  ,                                       !- View Factor to Ground
  ,                                       !- Number of Vertices
  4.572, 14.326, 19.2,                    !- X,Y,Z Vertex 1 {m}
  4.572, 22.86, 19.2,                     !- X,Y,Z Vertex 2 {m}
  0, 22.86, 19.2,                         !- X,Y,Z Vertex 3 {m}
  0, 14.326, 19.2;                        !- X,Y,Z Vertex 4 {m}

OS:Connection,
  {781cba12-e6df-4891-9f19-d4162ef2e789}, !- Handle
  {82196ee2-affe-4413-892e-8bf2a47c3d77}, !- Name
  ,                                       !- Source Object
  11,                                     !- Outlet Port
  ,                                       !- Target Object
  2;                                      !- Inlet Port

OS:Space,
  {735c6fa8-525c-45a3-82b3-b38ec3245a8f}, !- Handle
  Room_2_Flr_6,                           !- Name
  {968adab2-f5e7-46f2-8024-73181e80f0e2}, !- Space Type Name
  ,                                       !- Default Construction Set Name
  ,                                       !- Default Schedule Set Name
  -0,                                     !- Direction of Relative North {deg}
  0,                                      !- X Origin {m}
  0,                                      !- Y Origin {m}
  0,                                      !- Z Origin {m}
  {f4639d5b-3224-4500-bf20-cb7454712ad8}, !- Building Story Name
  {b97bb382-2f41-4e50-a3d9-dfad5cd77e34}, !- Thermal Zone Name
  Yes,                                    !- Part of Total Floor Area
  ,                                       !- Design Specification Outdoor Air Object Name
  ;                                       !- Building Unit Name

OS:Connection,
  {4c0e5a9e-286b-489f-b267-6f34abc63eb3}, !- Handle
  {56b45f19-65b8-4348-8026-e12e4644f5e8}, !- Name
  ,                                       !- Source Object
  11,                                     !- Outlet Port
  ,                                       !- Target Object
  2;                                      !- Inlet Port

OS:Space,
  {1c9aeaea-a105-4381-890b-4d9f9ad931ee}, !- Handle
  Corridor_Flr_3,                         !- Name
  {fc744433-302c-442f-9b13-18658bb73a34}, !- Space Type Name
  ,                                       !- Default Construction Set Name
  ,                                       !- Default Schedule Set Name
  -0,                                     !- Direction of Relative North {deg}
  0,                                      !- X Origin {m}
  0,                                      !- Y Origin {m}
  0,                                      !- Z Origin {m}
  {2053599b-ba44-402f-8dd3-3ba65307fe07}, !- Building Story Name
  {259f979f-56de-44d7-9b57-fe376626d8e6}, !- Thermal Zone Name
  Yes,                                    !- Part of Total Floor Area
  ,                                       !- Design Specification Outdoor Air Object Name
  ;                                       !- Building Unit Name

OS:ConvergenceLimits,
  {70f72b8f-0f12-4d6c-9b47-243771b0e570}, !- Handle
  1,                                      !- Minimum System Timestep {minutes}
  20;                                     !- Maximum HVAC Iterations

OS:Surface,
  {c6949061-d672-44fe-ae38-b59964db2117}, !- Handle
  Banquet_Flr_6_Wall_North,               !- Name
  Wall,                                   !- Surface Type
  ,                                       !- Construction Name
  {ba3048dd-f7da-474c-bbec-d2605f9e6cc4}, !- Space Name
  Outdoors,                               !- Outside Boundary Condition
  ,                                       !- Outside Boundary Condition Object
  SunExposed,                             !- Sun Exposure
  WindExposed,                            !- Wind Exposure
  ,                                       !- View Factor to Ground
  ,                                       !- Number of Vertices
  42.367, 22.86, 19.2,                    !- X,Y,Z Vertex 1 {m}
  42.367, 22.86, 16.152,                  !- X,Y,Z Vertex 2 {m}
  10.363, 22.86, 16.152,                  !- X,Y,Z Vertex 3 {m}
  10.363, 22.86, 19.2;                    !- X,Y,Z Vertex 4 {m}

OS:Connection,
  {5070de4c-886e-4c17-b6b0-35b5d628bfb8}, !- Handle
  {dc7fc591-b2d6-42da-b88b-31c586c32961}, !- Name
  ,                                       !- Source Object
  11,                                     !- Outlet Port
  ,                                       !- Target Object
  2;                                      !- Inlet Port

OS:Space,
  {ba3048dd-f7da-474c-bbec-d2605f9e6cc4}, !- Handle
  Banquet_Flr_6,                          !- Name
  {1bb35fe6-816a-40d1-8884-93e01d7df849}, !- Space Type Name
  ,                                       !- Default Construction Set Name
  ,                                       !- Default Schedule Set Name
  -0,                                     !- Direction of Relative North {deg}
  0,                                      !- X Origin {m}
  0,                                      !- Y Origin {m}
  0,                                      !- Z Origin {m}
  {f4639d5b-3224-4500-bf20-cb7454712ad8}, !- Building Story Name
  {bbe85838-f0f0-4784-a500-843a8b71777c}, !- Thermal Zone Name
  Yes,                                    !- Part of Total Floor Area
  ,                                       !- Design Specification Outdoor Air Object Name
  ;                                       !- Building Unit Name

OS:Connection,
  {65d7cf7d-d932-493f-89db-86a3c9021e51}, !- Handle
  {5a7575ae-9035-45b0-8573-f6f2bbf36667}, !- Name
  ,                                       !- Source Object
  11,                                     !- Outlet Port
  ,                                       !- Target Object
  2;                                      !- Inlet Port

OS:Space,
  {b4cff31b-2b2e-470e-b7c8-55b05f6374f6}, !- Handle
  Laundry_Flr_1,                          !- Name
  {c8a48527-7ec3-43e5-95de-2d5a58909a79}, !- Space Type Name
  ,                                       !- Default Construction Set Name
  ,                                       !- Default Schedule Set Name
  -0,                                     !- Direction of Relative North {deg}
  0,                                      !- X Origin {m}
  0,                                      !- Y Origin {m}
  0,                                      !- Z Origin {m}
  {0e4d49ab-bfaf-4502-af98-19b90ca05d17}, !- Building Story Name
  {4921154b-c754-40a7-ae83-c5eedce14129}, !- Thermal Zone Name
  Yes;                                    !- Part of Total Floor Area

OS:Surface,
  {7a866f98-032d-41ac-a05d-868768c9a2ff}, !- Handle
  Lobby_Flr_1_Wall_2_West,                !- Name
  Wall,                                   !- Surface Type
  ,                                       !- Construction Name
  {5f877673-6afe-4f1f-960f-7e78d281ff4b}, !- Space Name
  Surface,                                !- Outside Boundary Condition
  {3d0a89d0-0a71-4089-9adc-9c61c7036422}, !- Outside Boundary Condition Object
  NoSun,                                  !- Sun Exposure
  NoWind,                                 !- Wind Exposure
  ,                                       !- View Factor to Ground
  ,                                       !- Number of Vertices
  11.582, 5.791, 3.9624,                  !- X,Y,Z Vertex 1 {m}
  11.582, 5.791, 0,                       !- X,Y,Z Vertex 2 {m}
  11.582, 0, 0,                           !- X,Y,Z Vertex 3 {m}
  11.582, 0, 3.9624;                      !- X,Y,Z Vertex 4 {m}

OS:Connection,
  {8d17990b-3f1e-46be-9dbb-a4a09f7ccc3f}, !- Handle
  {84618c45-75ea-4662-9b59-11311a49bba0}, !- Name
  ,                                       !- Source Object
  11,                                     !- Outlet Port
  ,                                       !- Target Object
  2;                                      !- Inlet Port

OS:Space,
  {5f877673-6afe-4f1f-960f-7e78d281ff4b}, !- Handle
  Lobby_Flr_1,                            !- Name
  {3cd62246-bb6e-4be4-84f7-f1e1e4db9111}, !- Space Type Name
  ,                                       !- Default Construction Set Name
  ,                                       !- Default Schedule Set Name
  -0,                                     !- Direction of Relative North {deg}
  0,                                      !- X Origin {m}
  0,                                      !- Y Origin {m}
  0,                                      !- Z Origin {m}
  {0e4d49ab-bfaf-4502-af98-19b90ca05d17}, !- Building Story Name
  {2b864320-4deb-4b0b-903d-335e774d3ef3}, !- Thermal Zone Name
  Yes,                                    !- Part of Total Floor Area
  ,                                       !- Design Specification Outdoor Air Object Name
  ;                                       !- Building Unit Name

OS:Connection,
  {f7376c8c-aa24-405d-a5e4-3c56fed1b56e}, !- Handle
  {c8c77bc6-b004-4604-a782-f72cb57f88ba}, !- Name
  ,                                       !- Source Object
  11,                                     !- Outlet Port
  ,                                       !- Target Object
  2;                                      !- Inlet Port

OS:Space,
  {53c7fa8b-d0a9-4d59-9f72-ab5b6de28e90}, !- Handle
  Kitchen_Flr_6,                          !- Name
  {3951b0f5-be1f-4b98-9198-a6d39a405825}, !- Space Type Name
  ,                                       !- Default Construction Set Name
  ,                                       !- Default Schedule Set Name
  -0,                                     !- Direction of Relative North {deg}
  0,                                      !- X Origin {m}
  0,                                      !- Y Origin {m}
  0,                                      !- Z Origin {m}
  {f4639d5b-3224-4500-bf20-cb7454712ad8}, !- Building Story Name
  {6c4a15d1-c5b4-4349-94e8-90106aab30de}, !- Thermal Zone Name
  Yes,                                    !- Part of Total Floor Area
  ,                                       !- Design Specification Outdoor Air Object Name
  ;                                       !- Building Unit Name

OS:Surface,
  {3d0a89d0-0a71-4089-9adc-9c61c7036422}, !- Handle
  Retail_1_Flr_1_Wall_East,               !- Name
  Wall,                                   !- Surface Type
  ,                                       !- Construction Name
  {1a878509-17bb-4788-a93c-b231afdbd395}, !- Space Name
  Surface,                                !- Outside Boundary Condition
  {7a866f98-032d-41ac-a05d-868768c9a2ff}, !- Outside Boundary Condition Object
  NoSun,                                  !- Sun Exposure
  NoWind,                                 !- Wind Exposure
  ,                                       !- View Factor to Ground
  ,                                       !- Number of Vertices
  11.582, 0, 3.9624,                      !- X,Y,Z Vertex 1 {m}
  11.582, 0, 0,                           !- X,Y,Z Vertex 2 {m}
  11.582, 5.791, 0,                       !- X,Y,Z Vertex 3 {m}
  11.582, 5.791, 3.9624;                  !- X,Y,Z Vertex 4 {m}

OS:Connection,
  {eb899891-4838-40c2-89a9-86d7fdbfc42f}, !- Handle
  {39e89701-0d42-46a4-80f6-29866275bb9a}, !- Name
  ,                                       !- Source Object
  11,                                     !- Outlet Port
  ,                                       !- Target Object
  2;                                      !- Inlet Port

OS:Space,
  {1a878509-17bb-4788-a93c-b231afdbd395}, !- Handle
  Retail_1_Flr_1,                         !- Name
  {1dd83e0f-7c2e-49e8-9a77-2b3b3f609d02}, !- Space Type Name
  ,                                       !- Default Construction Set Name
  ,                                       !- Default Schedule Set Name
  -0,                                     !- Direction of Relative North {deg}
  0,                                      !- X Origin {m}
  0,                                      !- Y Origin {m}
  0,                                      !- Z Origin {m}
  {0e4d49ab-bfaf-4502-af98-19b90ca05d17}, !- Building Story Name
  {b7f30c67-9678-4b3a-bedb-e82c66f96c72}, !- Thermal Zone Name
  Yes,                                    !- Part of Total Floor Area
  ,                                       !- Design Specification Outdoor Air Object Name
  ;                                       !- Building Unit Name

OS:Building,
  {bb5b588d-ed54-4560-ae15-dfaff42d1cbb}, !- Handle
  LargeHotel,                             !- Name
  ,                                       !- Building Sector Type
  0,                                      !- North Axis {deg}
  ,                                       !- Nominal Floor to Floor Height {m}
  ,                                       !- Space Type Name
  {ee4d5062-9782-41e6-bf82-789711163a3b}, !- Default Construction Set Name
  ,                                       !- Default Schedule Set Name
  7,                                      !- Standards Number of Stories
  6,                                      !- Standards Number of Above Ground Stories
  NECB2017,                               !- Standards Template
  LargeHotel,                             !- Standards Building Type
  ,                                       !- Standards Number of Living Units
  ,                                       !- Relocatable
  ;                                       !- Nominal Floor to Ceiling Height {m}

OS:Connection,
  {3090efff-d176-4979-b979-fc01b07b5836}, !- Handle
  {4dd1672b-40e8-4beb-9957-e8bc89368ca0}, !- Name
  ,                                       !- Source Object
  11,                                     !- Outlet Port
  ,                                       !- Target Object
  2;                                      !- Inlet Port

OS:Space,
  {60361c47-6132-479f-892b-2ef2551c2988}, !- Handle
  Room_1_Flr_3,                           !- Name
  {968adab2-f5e7-46f2-8024-73181e80f0e2}, !- Space Type Name
  ,                                       !- Default Construction Set Name
  ,                                       !- Default Schedule Set Name
  -0,                                     !- Direction of Relative North {deg}
  0,                                      !- X Origin {m}
  0,                                      !- Y Origin {m}
  0,                                      !- Z Origin {m}
  {2053599b-ba44-402f-8dd3-3ba65307fe07}, !- Building Story Name
  {0ca64d99-87df-412d-8a96-9df360be6d50}, !- Thermal Zone Name
  Yes,                                    !- Part of Total Floor Area
  ,                                       !- Design Specification Outdoor Air Object Name
  ;                                       !- Building Unit Name

OS:Surface,
  {3478624a-5157-4245-b315-fbf2db6bd787}, !- Handle
  Basement_Ceiling_1,                     !- Name
  RoofCeiling,                            !- Surface Type
  ,                                       !- Construction Name
  {e8215437-4d6e-4194-81a3-8e59d7aab856}, !- Space Name
  Surface,                                !- Outside Boundary Condition
  {446fb5be-4dcf-466e-9cf9-aa3d479afdde}, !- Outside Boundary Condition Object
  NoSun,                                  !- Sun Exposure
  NoWind,                                 !- Wind Exposure
  ,                                       !- View Factor to Ground
  ,                                       !- Number of Vertices
  11.582, 0, 0,                           !- X,Y,Z Vertex 1 {m}
  11.582, 5.791, 0,                       !- X,Y,Z Vertex 2 {m}
  0, 5.791, 0,                            !- X,Y,Z Vertex 3 {m}
  0, 0, 0;                                !- X,Y,Z Vertex 4 {m}

OS:Connection,
  {3aa6f83c-5a18-431b-b1f5-4478b9f83a74}, !- Handle
  {731e3742-2032-4cc2-a737-ad780c614b2a}, !- Name
  ,                                       !- Source Object
  11,                                     !- Outlet Port
  ,                                       !- Target Object
  2;                                      !- Inlet Port

OS:Space,
  {e8215437-4d6e-4194-81a3-8e59d7aab856}, !- Handle
  Basement,                               !- Name
  {1db7ae02-984b-4f94-828f-b1dc879725a0}, !- Space Type Name
  ,                                       !- Default Construction Set Name
  ,                                       !- Default Schedule Set Name
  -0,                                     !- Direction of Relative North {deg}
  0,                                      !- X Origin {m}
  0,                                      !- Y Origin {m}
  0,                                      !- Z Origin {m}
  {5e09a01c-d73b-462b-a0e7-6329f805a99c}, !- Building Story Name
  {6e4849b6-8c6e-4f98-845f-3a791bd43fd2}, !- Thermal Zone Name
  Yes;                                    !- Part of Total Floor Area

OS:Surface,
  {019125a0-77bb-419d-a7f6-68140c061ebb}, !- Handle
  Corridor_Flr_6_Wall_2_West,             !- Name
  Wall,                                   !- Surface Type
  ,                                       !- Construction Name
  {727f620c-8075-4586-8703-48bde7f60f5c}, !- Space Name
  Surface,                                !- Outside Boundary Condition
  {82d225ea-f9f0-4298-b589-b6cb5b1f8282}, !- Outside Boundary Condition Object
  NoSun,                                  !- Sun Exposure
  NoWind,                                 !- Wind Exposure
  ,                                       !- View Factor to Ground
  ,                                       !- Number of Vertices
  4.572, 14.326, 19.2,                    !- X,Y,Z Vertex 1 {m}
  4.572, 14.326, 16.152,                  !- X,Y,Z Vertex 2 {m}
  4.572, 9.449, 16.152,                   !- X,Y,Z Vertex 3 {m}
  4.572, 9.449, 19.2;                     !- X,Y,Z Vertex 4 {m}

OS:Connection,
  {196bd115-1013-46af-a102-7952336117b6}, !- Handle
  {ccda578f-cba8-4d7d-b74d-911c59f948b1}, !- Name
  ,                                       !- Source Object
  11,                                     !- Outlet Port
  ,                                       !- Target Object
  2;                                      !- Inlet Port

OS:Space,
  {727f620c-8075-4586-8703-48bde7f60f5c}, !- Handle
  Corridor_Flr_6,                         !- Name
  {fc744433-302c-442f-9b13-18658bb73a34}, !- Space Type Name
  ,                                       !- Default Construction Set Name
  ,                                       !- Default Schedule Set Name
  -0,                                     !- Direction of Relative North {deg}
  0,                                      !- X Origin {m}
  0,                                      !- Y Origin {m}
  0,                                      !- Z Origin {m}
  {f4639d5b-3224-4500-bf20-cb7454712ad8}, !- Building Story Name
  {f2d6ef4f-95a8-497a-896a-73659efb1ccd}, !- Thermal Zone Name
  Yes,                                    !- Part of Total Floor Area
  ,                                       !- Design Specification Outdoor Air Object Name
  ;                                       !- Building Unit Name

OS:Surface,
  {228be3ab-60a2-4075-a255-0ca7e031bd61}, !- Handle
  Room_6_Flr_3_Wall_North,                !- Name
  Wall,                                   !- Surface Type
  ,                                       !- Construction Name
  {43edd94b-1dd2-4c9a-87d9-1a557847cf2c}, !- Space Name
  Outdoors,                               !- Outside Boundary Condition
  ,                                       !- Outside Boundary Condition Object
  SunExposed,                             !- Sun Exposure
  WindExposed,                            !- Wind Exposure
  ,                                       !- View Factor to Ground
  ,                                       !- Number of Vertices
  86.563, 22.86, 10.056,                  !- X,Y,Z Vertex 1 {m}
  86.563, 22.86, 7.008,                   !- X,Y,Z Vertex 2 {m}
  81.991, 22.86, 7.008,                   !- X,Y,Z Vertex 3 {m}
  81.991, 22.86, 10.056;                  !- X,Y,Z Vertex 4 {m}

OS:Connection,
  {cdf9e9c2-4195-48df-8a75-8d35d654843b}, !- Handle
  {1271c4e4-137d-4be7-98c9-bc8e14116999}, !- Name
  ,                                       !- Source Object
  11,                                     !- Outlet Port
  ,                                       !- Target Object
  2;                                      !- Inlet Port

OS:Space,
  {43edd94b-1dd2-4c9a-87d9-1a557847cf2c}, !- Handle
  Room_6_Flr_3,                           !- Name
  {968adab2-f5e7-46f2-8024-73181e80f0e2}, !- Space Type Name
  ,                                       !- Default Construction Set Name
  ,                                       !- Default Schedule Set Name
  -0,                                     !- Direction of Relative North {deg}
  0,                                      !- X Origin {m}
  0,                                      !- Y Origin {m}
  0,                                      !- Z Origin {m}
  {2053599b-ba44-402f-8dd3-3ba65307fe07}, !- Building Story Name
  {fa5cbae8-6675-41be-9e0d-965350606a96}, !- Thermal Zone Name
  Yes;                                    !- Part of Total Floor Area

OS:Surface,
  {b0779a3c-3a11-4697-babc-7a5313fa15eb}, !- Handle
  Lobby_Flr_1_Wall_1_North,               !- Name
  Wall,                                   !- Surface Type
  ,                                       !- Construction Name
  {5f877673-6afe-4f1f-960f-7e78d281ff4b}, !- Space Name
  Outdoors,                               !- Outside Boundary Condition
  ,                                       !- Outside Boundary Condition Object
  SunExposed,                             !- Sun Exposure
  WindExposed,                            !- Wind Exposure
  ,                                       !- View Factor to Ground
  ,                                       !- Number of Vertices
  53.95, 22.86, 3.9624,                   !- X,Y,Z Vertex 1 {m}
  53.95, 22.86, 0,                        !- X,Y,Z Vertex 2 {m}
  0, 22.86, 0,                            !- X,Y,Z Vertex 3 {m}
  0, 22.86, 3.9624;                       !- X,Y,Z Vertex 4 {m}

OS:Surface,
  {1270c231-dd8a-42a9-a14e-9420d04b6fbe}, !- Handle
  Basement_Ceiling_5,                     !- Name
  RoofCeiling,                            !- Surface Type
  ,                                       !- Construction Name
  {e8215437-4d6e-4194-81a3-8e59d7aab856}, !- Space Name
  Surface,                                !- Outside Boundary Condition
  {bf3482d2-209c-482d-af23-dc13969f1570}, !- Outside Boundary Condition Object
  NoSun,                                  !- Sun Exposure
  NoWind,                                 !- Wind Exposure
  ,                                       !- View Factor to Ground
  ,                                       !- Number of Vertices
  86.563, 5.791, 0,                       !- X,Y,Z Vertex 1 {m}
  86.563, 22.86, 0,                       !- X,Y,Z Vertex 2 {m}
  81.991, 22.86, 0,                       !- X,Y,Z Vertex 3 {m}
  81.991, 5.791, 0;                       !- X,Y,Z Vertex 4 {m}

OS:Connection,
  {e27ebe38-324e-4ef0-b95d-ba89bc1c883c}, !- Handle
  {a7ebaf1b-0c23-4b50-8cdc-a5541812846d}, !- Name
  ,                                       !- Source Object
  11,                                     !- Outlet Port
  ,                                       !- Target Object
  2;                                      !- Inlet Port

OS:Space,
  {f220e1f3-aa91-4513-9f9a-e8dd4a412b4d}, !- Handle
  Room_5_Flr_3,                           !- Name
  {968adab2-f5e7-46f2-8024-73181e80f0e2}, !- Space Type Name
  ,                                       !- Default Construction Set Name
  ,                                       !- Default Schedule Set Name
  -0,                                     !- Direction of Relative North {deg}
  0,                                      !- X Origin {m}
  0,                                      !- Y Origin {m}
  0,                                      !- Z Origin {m}
  {2053599b-ba44-402f-8dd3-3ba65307fe07}, !- Building Story Name
  {4dcd6a14-1aed-47af-8bc4-d564a59729a0}, !- Thermal Zone Name
  Yes,                                    !- Part of Total Floor Area
  ,                                       !- Design Specification Outdoor Air Object Name
  ;                                       !- Building Unit Name

OS:Surface,
  {9fadde92-d4f7-4525-8480-9afe67881f7d}, !- Handle
  Corridor_Flr_6_Wall_3_East,             !- Name
  Wall,                                   !- Surface Type
  ,                                       !- Construction Name
  {727f620c-8075-4586-8703-48bde7f60f5c}, !- Space Name
  Surface,                                !- Outside Boundary Condition
  {0b1a5647-b47b-4ce4-9155-63042cc6cea1}, !- Outside Boundary Condition Object
  NoSun,                                  !- Sun Exposure
  NoWind,                                 !- Wind Exposure
  ,                                       !- View Factor to Ground
  ,                                       !- Number of Vertices
  81.991, 5.791, 19.2,                    !- X,Y,Z Vertex 1 {m}
  81.991, 5.791, 16.152,                  !- X,Y,Z Vertex 2 {m}
  81.991, 12.497, 16.152,                 !- X,Y,Z Vertex 3 {m}
  81.991, 12.497, 19.2;                   !- X,Y,Z Vertex 4 {m}

OS:Connection,
  {2b846342-4cb7-49cb-9ade-b452b9a1a898}, !- Handle
  {ef2265f3-8966-4439-9c38-a120d8732421}, !- Name
  ,                                       !- Source Object
  11,                                     !- Outlet Port
  ,                                       !- Target Object
  2;                                      !- Inlet Port

OS:Space,
  {72c99aa5-adda-4d43-8716-a054b8639a94}, !- Handle
  Room_4_1_Flr_3,                         !- Name
  {968adab2-f5e7-46f2-8024-73181e80f0e2}, !- Space Type Name
  ,                                       !- Default Construction Set Name
  ,                                       !- Default Schedule Set Name
  -0,                                     !- Direction of Relative North {deg}
  0,                                      !- X Origin {m}
  0,                                      !- Y Origin {m}
  0,                                      !- Z Origin {m}
  {2053599b-ba44-402f-8dd3-3ba65307fe07}, !- Building Story Name
  {b274df5d-cb93-4dfb-a112-bec16ed943ee}, !- Thermal Zone Name
  Yes,                                    !- Part of Total Floor Area
  ,                                       !- Design Specification Outdoor Air Object Name
  ;                                       !- Building Unit Name

OS:Surface,
  {8cfcc863-8692-441a-98ac-1f13f4ce09d5}, !- Handle
  Room_3_1_Flr_6_Wall_West,               !- Name
  Wall,                                   !- Surface Type
  ,                                       !- Construction Name
  {33e71202-8fbd-4e14-b534-3eb0a82a5cec}, !- Space Name
  Surface,                                !- Outside Boundary Condition
  {b07c7525-68e4-441d-9fd3-3a523914d0a1}, !- Outside Boundary Condition Object
  NoSun,                                  !- Sun Exposure
  NoWind,                                 !- Wind Exposure
  ,                                       !- View Factor to Ground
  ,                                       !- Number of Vertices
  4.572, 9.449, 19.2,                     !- X,Y,Z Vertex 1 {m}
  4.572, 9.449, 16.152,                   !- X,Y,Z Vertex 2 {m}
  4.572, 5.791, 16.152,                   !- X,Y,Z Vertex 3 {m}
  4.572, 5.791, 19.2;                     !- X,Y,Z Vertex 4 {m}

OS:Connection,