
OS:Version,
  {7911b137-f99b-4e15-9b0e-649fe92f9927}, !- Handle
  3.2.1;                                  !- Version Identifier

OS:Site,
  {0a545789-8b9d-4e1f-b84e-8d745e2cce44}, !- Handle
  Victoria Intl AP_BC_CAN,                !- Name
  48.647,                                 !- Latitude {deg}
  -123.426,                               !- Longitude {deg}
  -8,                                     !- Time Zone {hr}
  19.5,                                   !- Elevation {m}
  ;                                       !- Terrain

OS:YearDescription,
  {8f80387e-5af4-461f-b76a-cf34fd1096ff}, !- Handle
  ,                                       !- Calendar Year
  Sunday;                                 !- Day of Week for Start Day

OS:ClimateZones,
  {34f597db-6ae3-4d1d-a0c1-1857094e2624}, !- Handle
  ASHRAE,                                 !- Climate Zone Institution Name 1
  ANSI/ASHRAE Standard 169,               !- Climate Zone Document Name 1
  2006,                                   !- Climate Zone Document Year 1
  ,                                       !- Climate Zone Value 1
  CEC,                                    !- Climate Zone Institution Name 2
  California Climate Zone Descriptions,   !- Climate Zone Document Name 2
  1995,                                   !- Climate Zone Document Year 2
  ;                                       !- Climate Zone Value 2

OS:Building,
  {27d6ecc8-0de6-4091-8915-bc78e4c42eab}, !- Handle
  SmallOffice_Rectangular_NECB2017,       !- Name
  ,                                       !- Building Sector Type
  0,                                      !- North Axis {deg}
  ,                                       !- Nominal Floor to Floor Height {m}
  {11794612-e570-4556-a658-21f6a06383c9}, !- Space Type Name
  {45574609-2fd5-46b7-b71d-887d9b130886}, !- Default Construction Set Name
  ,                                       !- Default Schedule Set Name
  1,                                      !- Standards Number of Stories
  1,                                      !- Standards Number of Above Ground Stories
  NECB2017,                               !- Standards Template
  SmallOffice;                            !- Standards Building Type

OS:Facility,
  {fe15b1ea-56d9-49b4-b576-127e03921848}; !- Handle

OS:LifeCycleCost:Parameters,
  {1077e295-742d-4b6c-954b-84d770548b82}, !- Handle
  ,                                       !- Analysis Type
  ,                                       !- Discounting Convention
  ,                                       !- Inflation Approach
  ,                                       !- Real Discount Rate
  ,                                       !- Nominal Discount Rate
  ,                                       !- Inflation
  ,                                       !- Base Date Month
  ,                                       !- Base Date Year
  ,                                       !- Service Date Month
  ,                                       !- Service Date Year
  ;                                       !- Length of Study Period in Years

OS:WeatherFile,
  {0a82c3f0-d07f-4adf-b745-f2d83075724c}, !- Handle
  Victoria Intl AP,                       !- City
  BC,                                     !- State Province Region
  CAN,                                    !- Country
  CWEC2016,                               !- Data Source
  717990,                                 !- WMO Number
  48.647,                                 !- Latitude {deg}
  -123.426,                               !- Longitude {deg}
  -8,                                     !- Time Zone {hr}
  19.5,                                   !- Elevation {m}
  ./weather/CAN_BC_Victoria.Intl.AP.717990_CWEC2016.epw, !- Url
  5E104EC0;                               !- Checksum

OS:RunPeriod,
  {a5fbe55a-8a75-4569-9461-b573500d2f74}, !- Handle
  Run Period 1,                           !- Name
  1,                                      !- Begin Month
  1,                                      !- Begin Day of Month
  12,                                     !- End Month
  31,                                     !- End Day of Month
  ,                                       !- Use Weather File Holidays and Special Days
  ,                                       !- Use Weather File Daylight Saving Period
  ,                                       !- Apply Weekend Holiday Rule
  ,                                       !- Use Weather File Rain Indicators
  ,                                       !- Use Weather File Snow Indicators
  ;                                       !- Number of Times Runperiod to be Repeated

OS:Exterior:Lights:Definition,
  {3ee27195-eec9-411f-aae2-063c2ffc1d11}, !- Handle
  Exterior Lights Definition 1,           !- Name
  10000;                                  !- Design Level {W}

OS:ScheduleTypeLimits,
  {86996550-e222-4f42-ac0c-79730acfcae9}, !- Handle
  OnOff,                                  !- Name
  0,                                      !- Lower Limit Value
  1,                                      !- Upper Limit Value
  Discrete,                               !- Numeric Type
  Availability;                           !- Unit Type

OS:ScheduleTypeLimits,
  {ea510019-270f-4f74-a8a7-e18061943433}, !- Handle
  Dimensionless,                          !- Name
  ,                                       !- Lower Limit Value
  ,                                       !- Upper Limit Value
  Continuous;                             !- Numeric Type

OS:ScheduleTypeLimits,
  {eec0e163-c142-4837-9615-9d6b24743094}, !- Handle
  Fractional,                             !- Name
  0,                                      !- Lower Limit Value
  1,                                      !- Upper Limit Value
  Continuous;                             !- Numeric Type

OS:ScheduleTypeLimits,
  {ba808a67-7e6f-4a0e-9f89-def235281648}, !- Handle
  ActivityLevel,                          !- Name
  0,                                      !- Lower Limit Value
  ,                                       !- Upper Limit Value
  Continuous,                             !- Numeric Type
  ActivityLevel;                          !- Unit Type

OS:ScheduleTypeLimits,
  {cd7c5aa1-a707-46e5-ae4f-6850c9c9f30b}, !- Handle
  Capacity,                               !- Name
  0,                                      !- Lower Limit Value
  ,                                       !- Upper Limit Value
  Continuous,                             !- Numeric Type
  Capacity;                               !- Unit Type

OS:ScheduleTypeLimits,
  {abb48550-a221-48c9-8bba-cf84f6d972e9}, !- Handle
  ClothingInsulation,                     !- Name
  0,                                      !- Lower Limit Value
  ,                                       !- Upper Limit Value
  Continuous,                             !- Numeric Type
  ClothingInsulation;                     !- Unit Type

OS:ScheduleTypeLimits,
  {812fee2c-f10d-4b65-8d37-ec22513287bc}, !- Handle
  ControlMode,                            !- Name
  0,                                      !- Lower Limit Value
  1,                                      !- Upper Limit Value
  Discrete,                               !- Numeric Type
  ControlMode;                            !- Unit Type

OS:ScheduleTypeLimits,
  {a92a4399-2942-4ca6-9aeb-a8e0a87632a7}, !- Handle
  DeltaTemperature,                       !- Name
  ,                                       !- Lower Limit Value
  ,                                       !- Upper Limit Value
  Continuous,                             !- Numeric Type
  DeltaTemperature;                       !- Unit Type

OS:ScheduleTypeLimits,
  {efb4d17e-b5a1-4ae4-a8ac-1be4c8eb0d6f}, !- Handle
  Dimensionless 1,                        !- Name
  0,                                      !- Lower Limit Value
  1,                                      !- Upper Limit Value
  Continuous,                             !- Numeric Type
  Dimensionless;                          !- Unit Type

OS:ScheduleTypeLimits,
  {673bc936-bcb4-4526-bf8f-8b7ccd3b2562}, !- Handle
  LinearPowerDensity,                     !- Name
  0,                                      !- Lower Limit Value
  ,                                       !- Upper Limit Value
  Continuous,                             !- Numeric Type
  LinearPowerDensity;                     !- Unit Type

OS:ScheduleTypeLimits,
  {cc3c8f90-e859-4d0a-b08a-5b99ec765121}, !- Handle
  MassFlowRate,                           !- Name
  ,                                       !- Lower Limit Value
  ,                                       !- Upper Limit Value
  Continuous,                             !- Numeric Type
  MassFlowRate;                           !- Unit Type

OS:ScheduleTypeLimits,
  {76cec689-f816-4ee3-aa3f-cc8ed9a7d892}, !- Handle
  Percent,                                !- Name
  0,                                      !- Lower Limit Value
  100,                                    !- Upper Limit Value
  Continuous,                             !- Numeric Type
  Percent;                                !- Unit Type

OS:ScheduleTypeLimits,
  {d29310ac-c60a-483a-a406-03c31fbf685b}, !- Handle
  Pressure,                               !- Name
  ,                                       !- Lower Limit Value
  ,                                       !- Upper Limit Value
  Continuous,                             !- Numeric Type
  Pressure;                               !- Unit Type

OS:ScheduleTypeLimits,
  {bcf4a70b-180d-45ca-b619-a3bdd786427f}, !- Handle
  RotationsPerMinute,                     !- Name
  ,                                       !- Lower Limit Value
  ,                                       !- Upper Limit Value
  Continuous,                             !- Numeric Type
  RotationsPerMinute;                     !- Unit Type

OS:ScheduleTypeLimits,
  {699fc495-8d2e-4e8c-8c09-255a3f5d18a9}, !- Handle
  Temperature,                            !- Name
  ,                                       !- Lower Limit Value
  ,                                       !- Upper Limit Value
  Continuous,                             !- Numeric Type
  Temperature;                            !- Unit Type

OS:ScheduleTypeLimits,
  {f43d6e35-6a21-4cf5-a802-858576dc643d}, !- Handle
  Velocity,                               !- Name
  0,                                      !- Lower Limit Value
  ,                                       !- Upper Limit Value
  Continuous,                             !- Numeric Type
  Velocity;                               !- Unit Type

OS:ScheduleTypeLimits,
  {6ee33ecc-173c-4311-a8d4-9a575a45c787}, !- Handle
  VolumetricFlowRate,                     !- Name
  0,                                      !- Lower Limit Value
  ,                                       !- Upper Limit Value
  Continuous,                             !- Numeric Type
  VolumetricFlowRate;                     !- Unit Type

OS:Schedule:Day,
  {577ee714-352e-4d10-ac2c-3b45e2b670ba}, !- Handle
  Schedule Day 2,                         !- Name
  {eec0e163-c142-4837-9615-9d6b24743094}, !- Schedule Type Limits Name
  ,                                       !- Interpolate to Timestep
  24,                                     !- Hour 1
  0,                                      !- Minute 1
  0.3;                                    !- Value Until Time 1

OS:BuildingStory,
  {af3af1d3-e66a-4336-b8c9-c9813af40828}, !- Handle
  Story 1,                                !- Name
  0,                                      !- Nominal Z Coordinate {m}
  3,                                      !- Nominal Floor to Floor Height {m}
  ,                                       !- Default Construction Set Name
  ,                                       !- Default Schedule Set Name
  ;                                       !- Group Rendering Name

OS:Space,
  {2d37a95e-e439-46f4-9949-049478956e88}, !- Handle
  Story 1 West Perimeter Space,           !- Name
  ,                                       !- Space Type Name
  ,                                       !- Default Construction Set Name
  ,                                       !- Default Schedule Set Name
  -0,                                     !- Direction of Relative North {deg}
  0,                                      !- X Origin {m}
  0,                                      !- Y Origin {m}
  0,                                      !- Z Origin {m}
  {af3af1d3-e66a-4336-b8c9-c9813af40828}, !- Building Story Name
  {1aef2df3-08a8-4a73-841d-3e7e147e2231}; !- Thermal Zone Name

OS:Surface,
  {276ea002-de46-451d-aa63-1c6ed6066b8e}, !- Handle
  Surface 1,                              !- Name
  Floor,                                  !- Surface Type
  ,                                       !- Construction Name
  {2d37a95e-e439-46f4-9949-049478956e88}, !- Space Name
  Ground,                                 !- Outside Boundary Condition
  ,                                       !- Outside Boundary Condition Object
  NoSun,                                  !- Sun Exposure
  NoWind,                                 !- Wind Exposure
  ,                                       !- View Factor to Ground
  ,                                       !- Number of Vertices
  0, 0, 0,                                !- X,Y,Z Vertex 1 {m}
  0, 11.5470053837925, 0,                 !- X,Y,Z Vertex 2 {m}
  1.28300059819917, 10.2640047855933, 0,  !- X,Y,Z Vertex 3 {m}
  1.28300059819917, 1.28300059819917, 0;  !- X,Y,Z Vertex 4 {m}

OS:Surface,
  {8380fba2-e39f-4b9d-8d8d-8a4bd22992ee}, !- Handle
  Surface 2,                              !- Name
  Wall,                                   !- Surface Type
  ,                                       !- Construction Name
  {2d37a95e-e439-46f4-9949-049478956e88}, !- Space Name
  Outdoors,                               !- Outside Boundary Condition
  ,                                       !- Outside Boundary Condition Object
  SunExposed,                             !- Sun Exposure
  WindExposed,                            !- Wind Exposure
  ,                                       !- View Factor to Ground
  ,                                       !- Number of Vertices
  0, 11.5470053837925, 3,                 !- X,Y,Z Vertex 1 {m}
  0, 11.5470053837925, 0,                 !- X,Y,Z Vertex 2 {m}
  0, 0, 0,                                !- X,Y,Z Vertex 3 {m}
  0, 0, 3;                                !- X,Y,Z Vertex 4 {m}

OS:Surface,
  {09dbf4e4-18b9-4592-88ce-1122d453c16d}, !- Handle
  Surface 3,                              !- Name
  Wall,                                   !- Surface Type
  ,                                       !- Construction Name
  {2d37a95e-e439-46f4-9949-049478956e88}, !- Space Name
  Surface,                                !- Outside Boundary Condition
  {7c6a2399-44de-4474-b83c-fdebb6c72773}, !- Outside Boundary Condition Object
  NoSun,                                  !- Sun Exposure
  NoWind,                                 !- Wind Exposure
  ,                                       !- View Factor to Ground
  ,                                       !- Number of Vertices
  1.28300059819917, 10.2640047855933, 3,  !- X,Y,Z Vertex 1 {m}
  1.28300059819917, 10.2640047855933, 0,  !- X,Y,Z Vertex 2 {m}
  0, 11.5470053837925, 0,                 !- X,Y,Z Vertex 3 {m}
  0, 11.5470053837925, 3;                 !- X,Y,Z Vertex 4 {m}

OS:Surface,
  {d6c93a1d-e45a-4e05-81c8-c67e5a3f57ac}, !- Handle
  Surface 4,                              !- Name
  Wall,                                   !- Surface Type
  ,                                       !- Construction Name
  {2d37a95e-e439-46f4-9949-049478956e88}, !- Space Name
  Surface,                                !- Outside Boundary Condition
  {eac93800-e4d7-4392-889b-16c204ed33c2}, !- Outside Boundary Condition Object
  NoSun,                                  !- Sun Exposure
  NoWind,                                 !- Wind Exposure
  ,                                       !- View Factor to Ground
  ,                                       !- Number of Vertices
  1.28300059819917, 1.28300059819917, 3,  !- X,Y,Z Vertex 1 {m}
  1.28300059819917, 1.28300059819917, 0,  !- X,Y,Z Vertex 2 {m}
  1.28300059819917, 10.2640047855933, 0,  !- X,Y,Z Vertex 3 {m}
  1.28300059819917, 10.2640047855933, 3;  !- X,Y,Z Vertex 4 {m}

OS:Surface,
  {ab3b8772-16b3-4325-a898-2342f56931ba}, !- Handle
  Surface 5,                              !- Name
  Wall,                                   !- Surface Type
  ,                                       !- Construction Name
  {2d37a95e-e439-46f4-9949-049478956e88}, !- Space Name
  Surface,                                !- Outside Boundary Condition
  {3fbd7f4c-884c-4a22-9f3c-77df9884d898}, !- Outside Boundary Condition Object
  NoSun,                                  !- Sun Exposure
  NoWind,                                 !- Wind Exposure
  ,                                       !- View Factor to Ground
  ,                                       !- Number of Vertices
  0, 0, 3,                                !- X,Y,Z Vertex 1 {m}
  0, 0, 0,                                !- X,Y,Z Vertex 2 {m}
  1.28300059819917, 1.28300059819917, 0,  !- X,Y,Z Vertex 3 {m}
  1.28300059819917, 1.28300059819917, 3;  !- X,Y,Z Vertex 4 {m}

OS:Surface,
  {405bf155-3996-4017-a680-d3a09459c486}, !- Handle
  Surface 6,                              !- Name
  RoofCeiling,                            !- Surface Type
  ,                                       !- Construction Name
  {2d37a95e-e439-46f4-9949-049478956e88}, !- Space Name
  Outdoors,                               !- Outside Boundary Condition
  ,                                       !- Outside Boundary Condition Object
  SunExposed,                             !- Sun Exposure
  WindExposed,                            !- Wind Exposure
  ,                                       !- View Factor to Ground
  ,                                       !- Number of Vertices
  1.28300059819917, 1.28300059819917, 3,  !- X,Y,Z Vertex 1 {m}
  1.28300059819917, 10.2640047855933, 3,  !- X,Y,Z Vertex 2 {m}
  0, 11.5470053837925, 3,                 !- X,Y,Z Vertex 3 {m}
  0, 0, 3;                                !- X,Y,Z Vertex 4 {m}

OS:Space,
  {a6cd9ccc-f188-4940-8e13-e9f78c4fab5b}, !- Handle
  Story 1 North Perimeter Space,          !- Name
  ,                                       !- Space Type Name
  ,                                       !- Default Construction Set Name
  ,                                       !- Default Schedule Set Name
  -0,                                     !- Direction of Relative North {deg}
  1.28300059819917,                       !- X Origin {m}
  10.2640047855933,                       !- Y Origin {m}
  0,                                      !- Z Origin {m}
  {af3af1d3-e66a-4336-b8c9-c9813af40828}, !- Building Story Name
  {11ceef83-7e0e-4145-8819-53a141bccfd7}; !- Thermal Zone Name

OS:Surface,
  {e66baab2-7eb4-4727-b2a1-2b0abbf7cde9}, !- Handle
  Surface 7,                              !- Name
  Floor,                                  !- Surface Type
  ,                                       !- Construction Name
  {a6cd9ccc-f188-4940-8e13-e9f78c4fab5b}, !- Space Name
  Ground,                                 !- Outside Boundary Condition
  ,                                       !- Outside Boundary Condition Object
  NoSun,                                  !- Sun Exposure
  NoWind,                                 !- Wind Exposure
  ,                                       !- View Factor to Ground
  ,                                       !- Number of Vertices
  -1.28300059819917, 1.28300059819915, 0, !- X,Y,Z Vertex 1 {m}
  24.697761515334, 1.28300059819915, 0,   !- X,Y,Z Vertex 2 {m}
  23.4147609171348, -4.79616346638068e-14, 0, !- X,Y,Z Vertex 3 {m}
  1.33226762955019e-15, -4.79616346638068e-14, 0; !- X,Y,Z Vertex 4 {m}

OS:Surface,
  {eab75129-c8e1-41fa-902e-3091cfbd17bc}, !- Handle
  Surface 8,                              !- Name
  Wall,                                   !- Surface Type
  ,                                       !- Construction Name
  {a6cd9ccc-f188-4940-8e13-e9f78c4fab5b}, !- Space Name
  Outdoors,                               !- Outside Boundary Condition
  ,                                       !- Outside Boundary Condition Object
  SunExposed,                             !- Sun Exposure
  WindExposed,                            !- Wind Exposure
  ,                                       !- View Factor to Ground
  ,                                       !- Number of Vertices
  24.697761515334, 1.28300059819915, 3,   !- X,Y,Z Vertex 1 {m}
  24.697761515334, 1.28300059819915, 0,   !- X,Y,Z Vertex 2 {m}
  -1.28300059819917, 1.28300059819915, 0, !- X,Y,Z Vertex 3 {m}
  -1.28300059819917, 1.28300059819915, 3; !- X,Y,Z Vertex 4 {m}

OS:Surface,
  {86a2597d-e426-4b55-a7e7-c6804f55d7d5}, !- Handle
  Surface 9,                              !- Name
  Wall,                                   !- Surface Type
  ,                                       !- Construction Name
  {a6cd9ccc-f188-4940-8e13-e9f78c4fab5b}, !- Space Name
  Surface,                                !- Outside Boundary Condition
  {547d4fd4-50f3-4752-b8ae-b19b3e87c489}, !- Outside Boundary Condition Object
  NoSun,                                  !- Sun Exposure
  NoWind,                                 !- Wind Exposure
  ,                                       !- View Factor to Ground
  ,                                       !- Number of Vertices
  23.4147609171348, -4.79616346638068e-14, 3, !- X,Y,Z Vertex 1 {m}
  23.4147609171348, -4.79616346638068e-14, 0, !- X,Y,Z Vertex 2 {m}
  24.697761515334, 1.28300059819915, 0,   !- X,Y,Z Vertex 3 {m}
  24.697761515334, 1.28300059819915, 3;   !- X,Y,Z Vertex 4 {m}

OS:Surface,
  {4bf1900d-5464-4634-9c28-f4f1b5f6dbe5}, !- Handle
  Surface 10,                             !- Name
  Wall,                                   !- Surface Type
  ,                                       !- Construction Name
  {a6cd9ccc-f188-4940-8e13-e9f78c4fab5b}, !- Space Name
  Surface,                                !- Outside Boundary Condition
  {66579b7c-213f-4dd4-b7c5-28b767cac89a}, !- Outside Boundary Condition Object
  NoSun,                                  !- Sun Exposure
  NoWind,                                 !- Wind Exposure
  ,                                       !- View Factor to Ground
  ,                                       !- Number of Vertices
  1.33226762955019e-15, -4.79616346638068e-14, 3, !- X,Y,Z Vertex 1 {m}
  1.33226762955019e-15, -4.79616346638068e-14, 0, !- X,Y,Z Vertex 2 {m}
  23.4147609171348, -4.79616346638068e-14, 0, !- X,Y,Z Vertex 3 {m}
  23.4147609171348, -4.79616346638068e-14, 3; !- X,Y,Z Vertex 4 {m}

OS:Surface,
  {7c6a2399-44de-4474-b83c-fdebb6c72773}, !- Handle
  Surface 11,                             !- Name
  Wall,                                   !- Surface Type
  ,                                       !- Construction Name
  {a6cd9ccc-f188-4940-8e13-e9f78c4fab5b}, !- Space Name
  Surface,                                !- Outside Boundary Condition
  {09dbf4e4-18b9-4592-88ce-1122d453c16d}, !- Outside Boundary Condition Object
  NoSun,                                  !- Sun Exposure
  NoWind,                                 !- Wind Exposure
  ,                                       !- View Factor to Ground
  ,                                       !- Number of Vertices
  -1.28300059819917, 1.28300059819915, 3, !- X,Y,Z Vertex 1 {m}
  -1.28300059819917, 1.28300059819915, 0, !- X,Y,Z Vertex 2 {m}
  1.33226762955019e-15, -4.79616346638068e-14, 0, !- X,Y,Z Vertex 3 {m}
  1.33226762955019e-15, -4.79616346638068e-14, 3; !- X,Y,Z Vertex 4 {m}

OS:Surface,
  {4cafbcc8-5c5b-4dad-b964-8f5ca17a2f41}, !- Handle
  Surface 12,                             !- Name
  RoofCeiling,                            !- Surface Type
  ,                                       !- Construction Name
  {a6cd9ccc-f188-4940-8e13-e9f78c4fab5b}, !- Space Name
  Outdoors,                               !- Outside Boundary Condition
  ,                                       !- Outside Boundary Condition Object
  SunExposed,                             !- Sun Exposure
  WindExposed,                            !- Wind Exposure
  ,                                       !- View Factor to Ground
  ,                                       !- Number of Vertices
  1.33226762955019e-15, -4.79616346638068e-14, 3, !- X,Y,Z Vertex 1 {m}
  23.4147609171348, -4.79616346638068e-14, 3, !- X,Y,Z Vertex 2 {m}
  24.697761515334, 1.28300059819915, 3,   !- X,Y,Z Vertex 3 {m}
  -1.28300059819917, 1.28300059819915, 3; !- X,Y,Z Vertex 4 {m}

OS:Space,
  {9b906fc9-7bc3-4a47-8c1f-7b7d53601d1d}, !- Handle
  Story 1 East Perimeter Space,           !- Name
  ,                                       !- Space Type Name
  ,                                       !- Default Construction Set Name
  ,                                       !- Default Schedule Set Name
  -0,                                     !- Direction of Relative North {deg}
  24.697761515334,                        !- X Origin {m}
  1.28300059819917,                       !- Y Origin {m}
  0,                                      !- Z Origin {m}
  {af3af1d3-e66a-4336-b8c9-c9813af40828}, !- Building Story Name
  {78b4b899-ed8e-4dc6-9944-b149e0307b48}; !- Thermal Zone Name

OS:Surface,
  {40f79366-4b23-4132-807d-6188350bdc25}, !- Handle
  Surface 13,                             !- Name
  Floor,                                  !- Surface Type
  ,                                       !- Construction Name
  {9b906fc9-7bc3-4a47-8c1f-7b7d53601d1d}, !- Space Name
  Ground,                                 !- Outside Boundary Condition
  ,                                       !- Outside Boundary Condition Object
  NoSun,                                  !- Sun Exposure
  NoWind,                                 !- Wind Exposure
  ,                                       !- View Factor to Ground
  ,                                       !- Number of Vertices
  1.28300059819921, 10.2640047855933, 0,  !- X,Y,Z Vertex 1 {m}
  1.28300059819921, -1.28300059819917, 0, !- X,Y,Z Vertex 2 {m}
  1.06581410364015e-14, 1.33226762955019e-15, 0, !- X,Y,Z Vertex 3 {m}
  1.06581410364015e-14, 8.98100418739413, 0; !- X,Y,Z Vertex 4 {m}

OS:Surface,
  {cd938bda-c97c-438b-b193-25fc59ba1db8}, !- Handle
  Surface 14,                             !- Name
  Wall,                                   !- Surface Type
  ,                                       !- Construction Name
  {9b906fc9-7bc3-4a47-8c1f-7b7d53601d1d}, !- Space Name
  Outdoors,                               !- Outside Boundary Condition
  ,                                       !- Outside Boundary Condition Object
  SunExposed,                             !- Sun Exposure
  WindExposed,                            !- Wind Exposure
  ,                                       !- View Factor to Ground
  ,                                       !- Number of Vertices
  1.28300059819921, -1.28300059819917, 3, !- X,Y,Z Vertex 1 {m}
  1.28300059819921, -1.28300059819917, 0, !- X,Y,Z Vertex 2 {m}
  1.28300059819921, 10.2640047855933, 0,  !- X,Y,Z Vertex 3 {m}
  1.28300059819921, 10.2640047855933, 3;  !- X,Y,Z Vertex 4 {m}

OS:Surface,
  {fdb632c6-e975-41f0-998b-e02eba0d3e36}, !- Handle
  Surface 15,                             !- Name
  Wall,                                   !- Surface Type
  ,                                       !- Construction Name
  {9b906fc9-7bc3-4a47-8c1f-7b7d53601d1d}, !- Space Name
  Surface,                                !- Outside Boundary Condition
  {3aae39a8-f623-4440-9a68-129d4f0b7b43}, !- Outside Boundary Condition Object
  NoSun,                                  !- Sun Exposure
  NoWind,                                 !- Wind Exposure
  ,                                       !- View Factor to Ground
  ,                                       !- Number of Vertices
  1.06581410364015e-14, 1.33226762955019e-15, 3, !- X,Y,Z Vertex 1 {m}
  1.06581410364015e-14, 1.33226762955019e-15, 0, !- X,Y,Z Vertex 2 {m}
  1.28300059819921, -1.28300059819917, 0, !- X,Y,Z Vertex 3 {m}
  1.28300059819921, -1.28300059819917, 3; !- X,Y,Z Vertex 4 {m}

OS:Surface,
  {75d35bb5-d8ea-421d-a4c5-78fa89634f20}, !- Handle
  Surface 16,                             !- Name
  Wall,                                   !- Surface Type
  ,                                       !- Construction Name
  {9b906fc9-7bc3-4a47-8c1f-7b7d53601d1d}, !- Space Name
  Surface,                                !- Outside Boundary Condition
  {3aeeadcc-d569-4a22-9f87-c39d22eb1362}, !- Outside Boundary Condition Object
  NoSun,                                  !- Sun Exposure
  NoWind,                                 !- Wind Exposure
  ,                                       !- View Factor to Ground
  ,                                       !- Number of Vertices
  1.06581410364015e-14, 8.98100418739413, 3, !- X,Y,Z Vertex 1 {m}
  1.06581410364015e-14, 8.98100418739413, 0, !- X,Y,Z Vertex 2 {m}
  1.06581410364015e-14, 1.33226762955019e-15, 0, !- X,Y,Z Vertex 3 {m}
  1.06581410364015e-14, 1.33226762955019e-15, 3; !- X,Y,Z Vertex 4 {m}

OS:Surface,
  {547d4fd4-50f3-4752-b8ae-b19b3e87c489}, !- Handle
  Surface 17,                             !- Name
  Wall,                                   !- Surface Type
  ,                                       !- Construction Name
  {9b906fc9-7bc3-4a47-8c1f-7b7d53601d1d}, !- Space Name
  Surface,                                !- Outside Boundary Condition
  {86a2597d-e426-4b55-a7e7-c6804f55d7d5}, !- Outside Boundary Condition Object
  NoSun,                                  !- Sun Exposure
  NoWind,                                 !- Wind Exposure
  ,                                       !- View Factor to Ground
  ,                                       !- Number of Vertices
  1.28300059819921, 10.2640047855933, 3,  !- X,Y,Z Vertex 1 {m}