
OS:Version,
  {4031d80c-6d3e-4941-99be-0ca1d996821c}, !- Handle
  3.2.1;                                  !- Version Identifier

OS:Site,
  {0a545789-8b9d-4e1f-b84e-8d745e2cce44}, !- Handle
  Windsor Intl AP_ON_CAN,                 !- Name
  42.276,                                 !- Latitude {deg}
  -82.956,                                !- Longitude {deg}
  -5,                                     !- Time Zone {hr}
  189.6,                                  !- Elevation {m}
  ;                                       !- Terrain

OS:YearDescription,
  {8f80387e-5af4-461f-b76a-cf34fd1096ff}, !- Handle
  ,                                       !- Calendar Year
  Sunday;                                 !- Day of Week for Start Day

OS:ClimateZones,
  {34f597db-6ae3-4d1d-a0c1-1857094e2624}, !- Handle
  ASHRAE,                                 !- Climate Zone Institution Name 1
  ANSI/ASHRAE Standard 169,               !- Climate Zone Document Name 1
  2006,                                   !- Climate Zone Document Year 1
  ,                                       !- Climate Zone Value 1
  CEC,                                    !- Climate Zone Institution Name 2
  California Climate Zone Descriptions,   !- Climate Zone Document Name 2
  1995,                                   !- Climate Zone Document Year 2
  ;                                       !- Climate Zone Value 2

OS:Building,
  {27d6ecc8-0de6-4091-8915-bc78e4c42eab}, !- Handle
  SmallOffice_Rectangular_NECB2017,       !- Name
  ,                                       !- Building Sector Type
  0,                                      !- North Axis {deg}
  ,                                       !- Nominal Floor to Floor Height {m}
  {c3001396-5319-4625-8d2b-5ac347604524}, !- Space Type Name
  {603204ed-1599-4100-a9d3-8cbe94826647}, !- Default Construction Set Name
  ,                                       !- Default Schedule Set Name
  1,                                      !- Standards Number of Stories
  1,                                      !- Standards Number of Above Ground Stories
  NECB2020,                               !- Standards Template
  SmallOffice;                            !- Standards Building Type

OS:Facility,
  {fe15b1ea-56d9-49b4-b576-127e03921848}; !- Handle

OS:LifeCycleCost:Parameters,
  {1077e295-742d-4b6c-954b-84d770548b82}, !- Handle
  ,                                       !- Analysis Type
  ,                                       !- Discounting Convention
  ,                                       !- Inflation Approach
  ,                                       !- Real Discount Rate
  ,                                       !- Nominal Discount Rate
  ,                                       !- Inflation
  ,                                       !- Base Date Month
  ,                                       !- Base Date Year
  ,                                       !- Service Date Month
  ,                                       !- Service Date Year
  ;                                       !- Length of Study Period in Years

OS:WeatherFile,
  {0a82c3f0-d07f-4adf-b745-f2d83075724c}, !- Handle
  Windsor Intl AP,                        !- City
  ON,                                     !- State Province Region
  CAN,                                    !- Country
  CWEC2016,                               !- Data Source
  715380,                                 !- WMO Number
  42.276,                                 !- Latitude {deg}
  -82.956,                                !- Longitude {deg}
  -5,                                     !- Time Zone {hr}
  189.6,                                  !- Elevation {m}
  D:/var/gems/ruby/2.7.0/bundler/gems/openstudio-standards-bda985be03e8/data/weather/CAN_ON_Windsor.Intl.AP.715380_CWEC2016.epw, !- Url
  D3ED6019;                               !- Checksum

OS:RunPeriod,
  {a5fbe55a-8a75-4569-9461-b573500d2f74}, !- Handle
  Run Period 1,                           !- Name
  1,                                      !- Begin Month
  1,                                      !- Begin Day of Month
  12,                                     !- End Month
  31,                                     !- End Day of Month
  ,                                       !- Use Weather File Holidays and Special Days
  ,                                       !- Use Weather File Daylight Saving Period
  ,                                       !- Apply Weekend Holiday Rule
  ,                                       !- Use Weather File Rain Indicators
  ,                                       !- Use Weather File Snow Indicators
  ;                                       !- Number of Times Runperiod to be Repeated

OS:Exterior:Lights:Definition,
  {3ee27195-eec9-411f-aae2-063c2ffc1d11}, !- Handle
  Exterior Lights Definition 1,           !- Name
  10000;                                  !- Design Level {W}

OS:ScheduleTypeLimits,
  {86996550-e222-4f42-ac0c-79730acfcae9}, !- Handle
  OnOff,                                  !- Name
  0,                                      !- Lower Limit Value
  1,                                      !- Upper Limit Value
  Discrete,                               !- Numeric Type
  Availability;                           !- Unit Type

OS:ScheduleTypeLimits,
  {ea510019-270f-4f74-a8a7-e18061943433}, !- Handle
  Dimensionless,                          !- Name
  ,                                       !- Lower Limit Value
  ,                                       !- Upper Limit Value
  Continuous;                             !- Numeric Type

OS:ScheduleTypeLimits,
  {eec0e163-c142-4837-9615-9d6b24743094}, !- Handle
  Fractional,                             !- Name
  0,                                      !- Lower Limit Value
  1,                                      !- Upper Limit Value
  Continuous;                             !- Numeric Type

OS:ScheduleTypeLimits,
  {ba808a67-7e6f-4a0e-9f89-def235281648}, !- Handle
  ActivityLevel,                          !- Name
  0,                                      !- Lower Limit Value
  ,                                       !- Upper Limit Value
  Continuous,                             !- Numeric Type
  ActivityLevel;                          !- Unit Type

OS:ScheduleTypeLimits,
  {cd7c5aa1-a707-46e5-ae4f-6850c9c9f30b}, !- Handle
  Capacity,                               !- Name
  0,                                      !- Lower Limit Value
  ,                                       !- Upper Limit Value
  Continuous,                             !- Numeric Type
  Capacity;                               !- Unit Type

OS:ScheduleTypeLimits,
  {abb48550-a221-48c9-8bba-cf84f6d972e9}, !- Handle
  ClothingInsulation,                     !- Name
  0,                                      !- Lower Limit Value
  ,                                       !- Upper Limit Value
  Continuous,                             !- Numeric Type
  ClothingInsulation;                     !- Unit Type

OS:ScheduleTypeLimits,
  {812fee2c-f10d-4b65-8d37-ec22513287bc}, !- Handle
  ControlMode,                            !- Name
  0,                                      !- Lower Limit Value
  1,                                      !- Upper Limit Value
  Discrete,                               !- Numeric Type
  ControlMode;                            !- Unit Type

OS:ScheduleTypeLimits,
  {a92a4399-2942-4ca6-9aeb-a8e0a87632a7}, !- Handle
  DeltaTemperature,                       !- Name
  ,                                       !- Lower Limit Value
  ,                                       !- Upper Limit Value
  Continuous,                             !- Numeric Type
  DeltaTemperature;                       !- Unit Type

OS:ScheduleTypeLimits,
  {efb4d17e-b5a1-4ae4-a8ac-1be4c8eb0d6f}, !- Handle
  Dimensionless 1,                        !- Name
  0,                                      !- Lower Limit Value
  1,                                      !- Upper Limit Value
  Continuous,                             !- Numeric Type
  Dimensionless;                          !- Unit Type

OS:ScheduleTypeLimits,
  {673bc936-bcb4-4526-bf8f-8b7ccd3b2562}, !- Handle
  LinearPowerDensity,                     !- Name
  0,                                      !- Lower Limit Value
  ,                                       !- Upper Limit Value
  Continuous,                             !- Numeric Type
  LinearPowerDensity;                     !- Unit Type

OS:ScheduleTypeLimits,
  {cc3c8f90-e859-4d0a-b08a-5b99ec765121}, !- Handle
  MassFlowRate,                           !- Name
  ,                                       !- Lower Limit Value
  ,                                       !- Upper Limit Value
  Continuous,                             !- Numeric Type
  MassFlowRate;                           !- Unit Type

OS:ScheduleTypeLimits,
  {76cec689-f816-4ee3-aa3f-cc8ed9a7d892}, !- Handle
  Percent,                                !- Name
  0,                                      !- Lower Limit Value
  100,                                    !- Upper Limit Value
  Continuous,                             !- Numeric Type
  Percent;                                !- Unit Type

OS:ScheduleTypeLimits,
  {d29310ac-c60a-483a-a406-03c31fbf685b}, !- Handle
  Pressure,                               !- Name
  ,                                       !- Lower Limit Value
  ,                                       !- Upper Limit Value
  Continuous,                             !- Numeric Type
  Pressure;                               !- Unit Type

OS:ScheduleTypeLimits,
  {bcf4a70b-180d-45ca-b619-a3bdd786427f}, !- Handle
  RotationsPerMinute,                     !- Name
  ,                                       !- Lower Limit Value
  ,                                       !- Upper Limit Value
  Continuous,                             !- Numeric Type
  RotationsPerMinute;                     !- Unit Type

OS:ScheduleTypeLimits,
  {699fc495-8d2e-4e8c-8c09-255a3f5d18a9}, !- Handle
  Temperature,                            !- Name
  ,                                       !- Lower Limit Value
  ,                                       !- Upper Limit Value
  Continuous,                             !- Numeric Type
  Temperature;                            !- Unit Type

OS:ScheduleTypeLimits,
  {f43d6e35-6a21-4cf5-a802-858576dc643d}, !- Handle
  Velocity,                               !- Name
  0,                                      !- Lower Limit Value
  ,                                       !- Upper Limit Value
  Continuous,                             !- Numeric Type
  Velocity;                               !- Unit Type

OS:ScheduleTypeLimits,
  {6ee33ecc-173c-4311-a8d4-9a575a45c787}, !- Handle
  VolumetricFlowRate,                     !- Name
  0,                                      !- Lower Limit Value
  ,                                       !- Upper Limit Value
  Continuous,                             !- Numeric Type
  VolumetricFlowRate;                     !- Unit Type

OS:Schedule:Day,
  {577ee714-352e-4d10-ac2c-3b45e2b670ba}, !- Handle
  Schedule Day 2,                         !- Name
  {eec0e163-c142-4837-9615-9d6b24743094}, !- Schedule Type Limits Name
  ,                                       !- Interpolate to Timestep
  24,                                     !- Hour 1
  0,                                      !- Minute 1
  0.3;                                    !- Value Until Time 1

OS:BuildingStory,
  {b9be1577-5fbf-404d-bf88-1c809915a51d}, !- Handle
  Story 1,                                !- Name
  0,                                      !- Nominal Z Coordinate {m}
  3,                                      !- Nominal Floor to Floor Height {m}
  ,                                       !- Default Construction Set Name
  ,                                       !- Default Schedule Set Name
  ;                                       !- Group Rendering Name

OS:Space,
  {1e167949-3133-4a0f-922c-ebdf769e01d3}, !- Handle
  Story 1 West Perimeter Space,           !- Name
  ,                                       !- Space Type Name
  ,                                       !- Default Construction Set Name
  ,                                       !- Default Schedule Set Name
  -0,                                     !- Direction of Relative North {deg}
  0,                                      !- X Origin {m}
  0,                                      !- Y Origin {m}
  0,                                      !- Z Origin {m}
  {b9be1577-5fbf-404d-bf88-1c809915a51d}, !- Building Story Name
  {770965c5-73d1-4d37-b1dd-408f0d2e548e}; !- Thermal Zone Name

OS:Surface,
  {c58043ce-0115-4ae1-87e4-163ca50adcba}, !- Handle
  Surface 1,                              !- Name
  Floor,                                  !- Surface Type
  ,                                       !- Construction Name
  {1e167949-3133-4a0f-922c-ebdf769e01d3}, !- Space Name
  Ground,                                 !- Outside Boundary Condition
  ,                                       !- Outside Boundary Condition Object
  NoSun,                                  !- Sun Exposure
  NoWind,                                 !- Wind Exposure
  ,                                       !- View Factor to Ground
  ,                                       !- Number of Vertices
  0, 0, 0,                                !- X,Y,Z Vertex 1 {m}
  0, 11.5470053837925, 0,                 !- X,Y,Z Vertex 2 {m}
  1.28300059819917, 10.2640047855933, 0,  !- X,Y,Z Vertex 3 {m}
  1.28300059819917, 1.28300059819917, 0;  !- X,Y,Z Vertex 4 {m}

OS:Surface,
  {e60ac579-6c7f-49e2-b06e-2ee218563f58}, !- Handle
  Surface 2,                              !- Name
  Wall,                                   !- Surface Type
  ,                                       !- Construction Name
  {1e167949-3133-4a0f-922c-ebdf769e01d3}, !- Space Name
  Outdoors,                               !- Outside Boundary Condition
  ,                                       !- Outside Boundary Condition Object
  SunExposed,                             !- Sun Exposure
  WindExposed,                            !- Wind Exposure
  ,                                       !- View Factor to Ground
  ,                                       !- Number of Vertices
  0, 11.5470053837925, 3,                 !- X,Y,Z Vertex 1 {m}
  0, 11.5470053837925, 0,                 !- X,Y,Z Vertex 2 {m}
  0, 0, 0,                                !- X,Y,Z Vertex 3 {m}
  0, 0, 3;                                !- X,Y,Z Vertex 4 {m}

OS:Surface,
  {f25c4d50-c533-42c7-a22d-aef1ae9344d6}, !- Handle
  Surface 3,                              !- Name
  Wall,                                   !- Surface Type
  ,                                       !- Construction Name
  {1e167949-3133-4a0f-922c-ebdf769e01d3}, !- Space Name
  Surface,                                !- Outside Boundary Condition
  {27099a28-a9fc-42af-ba87-8b510e3eb063}, !- Outside Boundary Condition Object
  NoSun,                                  !- Sun Exposure
  NoWind,                                 !- Wind Exposure
  ,                                       !- View Factor to Ground
  ,                                       !- Number of Vertices
  1.28300059819917, 10.2640047855933, 3,  !- X,Y,Z Vertex 1 {m}
  1.28300059819917, 10.2640047855933, 0,  !- X,Y,Z Vertex 2 {m}
  0, 11.5470053837925, 0,                 !- X,Y,Z Vertex 3 {m}
  0, 11.5470053837925, 3;                 !- X,Y,Z Vertex 4 {m}

OS:Surface,
  {6f0a43b5-a179-4f59-a9be-3e2c11669379}, !- Handle
  Surface 4,                              !- Name
  Wall,                                   !- Surface Type
  ,                                       !- Construction Name
  {1e167949-3133-4a0f-922c-ebdf769e01d3}, !- Space Name
  Surface,                                !- Outside Boundary Condition
  {e3f22bf6-824b-4f69-a10f-40378bf78fbd}, !- Outside Boundary Condition Object
  NoSun,                                  !- Sun Exposure
  NoWind,                                 !- Wind Exposure
  ,                                       !- View Factor to Ground
  ,                                       !- Number of Vertices
  1.28300059819917, 1.28300059819917, 3,  !- X,Y,Z Vertex 1 {m}
  1.28300059819917, 1.28300059819917, 0,  !- X,Y,Z Vertex 2 {m}
  1.28300059819917, 10.2640047855933, 0,  !- X,Y,Z Vertex 3 {m}
  1.28300059819917, 10.2640047855933, 3;  !- X,Y,Z Vertex 4 {m}

OS:Surface,
  {8956231e-c43e-46c6-8a8b-424e633b3b8c}, !- Handle
  Surface 5,                              !- Name
  Wall,                                   !- Surface Type
  ,                                       !- Construction Name
  {1e167949-3133-4a0f-922c-ebdf769e01d3}, !- Space Name
  Surface,                                !- Outside Boundary Condition
  {fac88ccd-2a45-4641-985d-be1a548ea499}, !- Outside Boundary Condition Object
  NoSun,                                  !- Sun Exposure
  NoWind,                                 !- Wind Exposure
  ,                                       !- View Factor to Ground
  ,                                       !- Number of Vertices
  0, 0, 3,                                !- X,Y,Z Vertex 1 {m}
  0, 0, 0,                                !- X,Y,Z Vertex 2 {m}
  1.28300059819917, 1.28300059819917, 0,  !- X,Y,Z Vertex 3 {m}
  1.28300059819917, 1.28300059819917, 3;  !- X,Y,Z Vertex 4 {m}

OS:Surface,
  {2e9e4b63-95a3-4e92-8c6a-3ad9b619cf7c}, !- Handle
  Surface 6,                              !- Name
  RoofCeiling,                            !- Surface Type
  ,                                       !- Construction Name
  {1e167949-3133-4a0f-922c-ebdf769e01d3}, !- Space Name
  Outdoors,                               !- Outside Boundary Condition
  ,                                       !- Outside Boundary Condition Object
  SunExposed,                             !- Sun Exposure
  WindExposed,                            !- Wind Exposure
  ,                                       !- View Factor to Ground
  ,                                       !- Number of Vertices
  1.28300059819917, 1.28300059819917, 3,  !- X,Y,Z Vertex 1 {m}
  1.28300059819917, 10.2640047855933, 3,  !- X,Y,Z Vertex 2 {m}
  0, 11.5470053837925, 3,                 !- X,Y,Z Vertex 3 {m}
  0, 0, 3;                                !- X,Y,Z Vertex 4 {m}

OS:Space,
  {4e4b76c8-efd9-49f9-89fd-ccc94930bdf7}, !- Handle
  Story 1 North Perimeter Space,          !- Name
  ,                                       !- Space Type Name
  ,                                       !- Default Construction Set Name
  ,                                       !- Default Schedule Set Name
  -0,                                     !- Direction of Relative North {deg}
  1.28300059819917,                       !- X Origin {m}
  10.2640047855933,                       !- Y Origin {m}
  0,                                      !- Z Origin {m}
  {b9be1577-5fbf-404d-bf88-1c809915a51d}, !- Building Story Name
  {5a8cc0e7-df2e-40ce-9b44-fba08ba855f1}; !- Thermal Zone Name

OS:Surface,
  {34afb918-7bf4-457b-94b0-601114a4ac82}, !- Handle
  Surface 7,                              !- Name
  Floor,                                  !- Surface Type
  ,                                       !- Construction Name
  {4e4b76c8-efd9-49f9-89fd-ccc94930bdf7}, !- Space Name
  Ground,                                 !- Outside Boundary Condition
  ,                                       !- Outside Boundary Condition Object
  NoSun,                                  !- Sun Exposure
  NoWind,                                 !- Wind Exposure
  ,                                       !- View Factor to Ground
  ,                                       !- Number of Vertices
  -1.28300059819917, 1.28300059819915, 0, !- X,Y,Z Vertex 1 {m}
  24.697761515334, 1.28300059819915, 0,   !- X,Y,Z Vertex 2 {m}
  23.4147609171348, -4.79616346638068e-14, 0, !- X,Y,Z Vertex 3 {m}
  1.33226762955019e-15, -4.79616346638068e-14, 0; !- X,Y,Z Vertex 4 {m}

OS:Surface,
  {66b15dc3-9011-4b25-a05d-d27aec290738}, !- Handle
  Surface 8,                              !- Name
  Wall,                                   !- Surface Type
  ,                                       !- Construction Name
  {4e4b76c8-efd9-49f9-89fd-ccc94930bdf7}, !- Space Name
  Outdoors,                               !- Outside Boundary Condition
  ,                                       !- Outside Boundary Condition Object
  SunExposed,                             !- Sun Exposure
  WindExposed,                            !- Wind Exposure
  ,                                       !- View Factor to Ground
  ,                                       !- Number of Vertices
  24.697761515334, 1.28300059819915, 3,   !- X,Y,Z Vertex 1 {m}
  24.697761515334, 1.28300059819915, 0,   !- X,Y,Z Vertex 2 {m}
  -1.28300059819917, 1.28300059819915, 0, !- X,Y,Z Vertex 3 {m}
  -1.28300059819917, 1.28300059819915, 3; !- X,Y,Z Vertex 4 {m}

OS:Surface,
  {f7dad8cb-1887-4da7-9d35-5b9d19763483}, !- Handle
  Surface 9,                              !- Name
  Wall,                                   !- Surface Type
  ,                                       !- Construction Name
  {4e4b76c8-efd9-49f9-89fd-ccc94930bdf7}, !- Space Name
  Surface,                                !- Outside Boundary Condition
  {36f95723-9fe3-4b07-8d21-480ebb640156}, !- Outside Boundary Condition Object
  NoSun,                                  !- Sun Exposure
  NoWind,                                 !- Wind Exposure
  ,                                       !- View Factor to Ground
  ,                                       !- Number of Vertices
  23.4147609171348, -4.79616346638068e-14, 3, !- X,Y,Z Vertex 1 {m}
  23.4147609171348, -4.79616346638068e-14, 0, !- X,Y,Z Vertex 2 {m}
  24.697761515334, 1.28300059819915, 0,   !- X,Y,Z Vertex 3 {m}
  24.697761515334, 1.28300059819915, 3;   !- X,Y,Z Vertex 4 {m}

OS:Surface,
  {88b7e551-2ccc-43c1-92e6-750e23cee4e6}, !- Handle
  Surface 10,                             !- Name
  Wall,                                   !- Surface Type
  ,                                       !- Construction Name
  {4e4b76c8-efd9-49f9-89fd-ccc94930bdf7}, !- Space Name
  Surface,                                !- Outside Boundary Condition
  {eff9ef6e-fc33-4a48-a1b3-f576f0785db8}, !- Outside Boundary Condition Object
  NoSun,                                  !- Sun Exposure
  NoWind,                                 !- Wind Exposure
  ,                                       !- View Factor to Ground
  ,                                       !- Number of Vertices
  1.33226762955019e-15, -4.79616346638068e-14, 3, !- X,Y,Z Vertex 1 {m}
  1.33226762955019e-15, -4.79616346638068e-14, 0, !- X,Y,Z Vertex 2 {m}
  23.4147609171348, -4.79616346638068e-14, 0, !- X,Y,Z Vertex 3 {m}
  23.4147609171348, -4.79616346638068e-14, 3; !- X,Y,Z Vertex 4 {m}

OS:Surface,
  {27099a28-a9fc-42af-ba87-8b510e3eb063}, !- Handle
  Surface 11,                             !- Name
  Wall,                                   !- Surface Type
  ,                                       !- Construction Name
  {4e4b76c8-efd9-49f9-89fd-ccc94930bdf7}, !- Space Name
  Surface,                                !- Outside Boundary Condition
  {f25c4d50-c533-42c7-a22d-aef1ae9344d6}, !- Outside Boundary Condition Object
  NoSun,                                  !- Sun Exposure
  NoWind,                                 !- Wind Exposure
  ,                                       !- View Factor to Ground
  ,                                       !- Number of Vertices
  -1.28300059819917, 1.28300059819915, 3, !- X,Y,Z Vertex 1 {m}
  -1.28300059819917, 1.28300059819915, 0, !- X,Y,Z Vertex 2 {m}
  1.33226762955019e-15, -4.79616346638068e-14, 0, !- X,Y,Z Vertex 3 {m}
  1.33226762955019e-15, -4.79616346638068e-14, 3; !- X,Y,Z Vertex 4 {m}

OS:Surface,
  {f71ea61c-c8c4-4055-b4ea-70e866aa3124}, !- Handle
  Surface 12,                             !- Name
  RoofCeiling,                            !- Surface Type
  ,                                       !- Construction Name
  {4e4b76c8-efd9-49f9-89fd-ccc94930bdf7}, !- Space Name
  Outdoors,                               !- Outside Boundary Condition
  ,                                       !- Outside Boundary Condition Object
  SunExposed,                             !- Sun Exposure
  WindExposed,                            !- Wind Exposure
  ,                                       !- View Factor to Ground
  ,                                       !- Number of Vertices
  1.33226762955019e-15, -4.79616346638068e-14, 3, !- X,Y,Z Vertex 1 {m}
  23.4147609171348, -4.79616346638068e-14, 3, !- X,Y,Z Vertex 2 {m}
  24.697761515334, 1.28300059819915, 3,   !- X,Y,Z Vertex 3 {m}
  -1.28300059819917, 1.28300059819915, 3; !- X,Y,Z Vertex 4 {m}

OS:Space,
  {6082ba9e-cc69-4c18-af0c-58ebcd955cc1}, !- Handle
  Story 1 East Perimeter Space,           !- Name
  ,                                       !- Space Type Name
  ,                                       !- Default Construction Set Name
  ,                                       !- Default Schedule Set Name
  -0,                                     !- Direction of Relative North {deg}
  24.697761515334,                        !- X Origin {m}
  1.28300059819917,                       !- Y Origin {m}
  0,                                      !- Z Origin {m}
  {b9be1577-5fbf-404d-bf88-1c809915a51d}, !- Building Story Name
  {fc402461-bd86-422b-982a-bf2ad385b5a0}; !- Thermal Zone Name

OS:Surface,
  {ba303a1f-da1c-4430-bc53-529d6fec3115}, !- Handle
  Surface 13,                             !- Name
  Floor,                                  !- Surface Type
  ,                                       !- Construction Name
  {6082ba9e-cc69-4c18-af0c-58ebcd955cc1}, !- Space Name
  Ground,                                 !- Outside Boundary Condition
  ,                                       !- Outside Boundary Condition Object
  NoSun,                                  !- Sun Exposure
  NoWind,                                 !- Wind Exposure
  ,                                       !- View Factor to Ground
  ,                                       !- Number of Vertices
  1.28300059819921, 10.2640047855933, 0,  !- X,Y,Z Vertex 1 {m}
  1.28300059819921, -1.28300059819917, 0, !- X,Y,Z Vertex 2 {m}
  1.06581410364015e-14, 1.33226762955019e-15, 0, !- X,Y,Z Vertex 3 {m}
  1.06581410364015e-14, 8.98100418739413, 0; !- X,Y,Z Vertex 4 {m}

OS:Surface,
  {cda231b4-dc3d-44dd-b713-1e1dcb16a7d0}, !- Handle
  Surface 14,                             !- Name
  Wall,                                   !- Surface Type
  ,                                       !- Construction Name
  {6082ba9e-cc69-4c18-af0c-58ebcd955cc1}, !- Space Name
  Outdoors,                               !- Outside Boundary Condition
  ,                                       !- Outside Boundary Condition Object
  SunExposed,                             !- Sun Exposure
  WindExposed,                            !- Wind Exposure
  ,                                       !- View Factor to Ground
  ,                                       !- Number of Vertices
  1.28300059819921, -1.28300059819917, 3, !- X,Y,Z Vertex 1 {m}
  1.28300059819921, -1.28300059819917, 0, !- X,Y,Z Vertex 2 {m}
  1.28300059819921, 10.2640047855933, 0,  !- X,Y,Z Vertex 3 {m}
  1.28300059819921, 10.2640047855933, 3;  !- X,Y,Z Vertex 4 {m}

OS:Surface,
  {5dc439ba-9d83-44d0-ba31-c34df4e36d7b}, !- Handle
  Surface 15,                             !- Name
  Wall,                                   !- Surface Type
  ,                                       !- Construction Name
  {6082ba9e-cc69-4c18-af0c-58ebcd955cc1}, !- Space Name
  Surface,                                !- Outside Boundary Condition
  {6a901a48-225e-4848-a947-2462892b9115}, !- Outside Boundary Condition Object
  NoSun,                                  !- Sun Exposure
  NoWind,                                 !- Wind Exposure
  ,                                       !- View Factor to Ground
  ,                                       !- Number of Vertices
  1.06581410364015e-14, 1.33226762955019e-15, 3, !- X,Y,Z Vertex 1 {m}
  1.06581410364015e-14, 1.33226762955019e-15, 0, !- X,Y,Z Vertex 2 {m}
  1.28300059819921, -1.28300059819917, 0, !- X,Y,Z Vertex 3 {m}
  1.28300059819921, -1.28300059819917, 3; !- X,Y,Z Vertex 4 {m}

OS:Surface,
  {5c7e01dd-8d65-4b48-91ba-b11e1ddd4f25}, !- Handle
  Surface 16,                             !- Name
  Wall,                                   !- Surface Type
  ,                                       !- Construction Name
  {6082ba9e-cc69-4c18-af0c-58ebcd955cc1}, !- Space Name
  Surface,                                !- Outside Boundary Condition
  {f14ccba3-920c-4598-8649-0fccb784a765}, !- Outside Boundary Condition Object
  NoSun,                                  !- Sun Exposure
  NoWind,                                 !- Wind Exposure
  ,                                       !- View Factor to Ground
  ,                                       !- Number of Vertices
  1.06581410364015e-14, 8.98100418739413, 3, !- X,Y,Z Vertex 1 {m}
  1.06581410364015e-14, 8.98100418739413, 0, !- X,Y,Z Vertex 2 {m}
  1.06581410364015e-14, 1.33226762955019e-15, 0, !- X,Y,Z Vertex 3 {m}
  1.06581410364015e-14, 1.33226762955019e-15, 3; !- X,Y,Z Vertex 4 {m}

OS:Surface,
  {36f95723-9fe3-4b07-8d21-480ebb640156}, !- Handle
  Surface 17,                             !- Name
  Wall,                                   !- Surface Type
  ,                                       !- Construction Name
  {6082ba9e-cc69-4c18-af0c-58ebcd955cc1}, !- Space Name
  Surface,                                !- Outside Boundary Condition
  {f7dad8cb-1887-4da7-9d35-5b9d19763483}, !- Outside Boundary Condition Object
  NoSun,                                  !- Sun Exposure
  NoWind,                                 !- Wind Exposure
  ,                                       !- View Factor to Ground
  ,                                       !- Number of Vertices