
OS:Version,
  {8510d649-2877-44f7-8ef5-1d6b1537281e}, !- Handle
  3.0.1;                                  !- Version Identifier

OS:ScheduleTypeLimits,
  {4802fa04-7220-4fb4-8d64-50f09b14ae0f}, !- Handle
  Always On Discrete Limits,              !- Name
  0,                                      !- Lower Limit Value
  1,                                      !- Upper Limit Value
  Discrete,                               !- Numeric Type
  Availability;                           !- Unit Type

OS:Site,
  {81c5ec36-9212-46b2-b70e-8ca2dcd95a5f}, !- Handle
  Fredericton Intl AP_NB_CAN,             !- Name
  45.869,                                 !- Latitude {deg}
  -66.537,                                !- Longitude {deg}
  -4,                                     !- Time Zone {hr}
  20.7,                                   !- Elevation {m}
  City;                                   !- Terrain

OS:SimulationControl,
  {3e4a010b-ca10-4145-8485-7051dccae060}, !- Handle
  Yes,                                    !- Do Zone Sizing Calculation
  Yes,                                    !- Do System Sizing Calculation
  Yes,                                    !- Do Plant Sizing Calculation
  No,                                     !- Run Simulation for Sizing Periods
  Yes,                                    !- Run Simulation for Weather File Run Periods
  0.04,                                   !- Loads Convergence Tolerance Value {W}
  0.2,                                    !- Temperature Convergence Tolerance Value {deltaC}
  FullInteriorAndExterior,                !- Solar Distribution
  25,                                     !- Maximum Number of Warmup Days
  6,                                      !- Minimum Number of Warmup Days
  No,                                     !- Do HVAC Sizing Simulation for Sizing Periods
  1;                                      !- Maximum Number of HVAC Sizing Simulation Passes

OS:Space,
  {6d4b145e-6290-4db5-94c7-e6a0101bb568}, !- Handle
  F8 SE Apartment,                        !- Name
  {406349fc-ee64-4618-aaa2-892652ede66c}, !- Space Type Name
  ,                                       !- Default Construction Set Name
  ,                                       !- Default Schedule Set Name
  0,                                      !- Direction of Relative North {deg}
  34.7455,                                !- X Origin {m}
  0,                                      !- Y Origin {m}
  21.3349,                                !- Z Origin {m}
  {544f7c18-a05a-475d-bc1c-052b70a7250f}, !- Building Story Name
  {60cdcfe4-c170-4eaa-a36b-d89065098507}, !- Thermal Zone Name
  Yes;                                    !- Part of Total Floor Area

OS:Surface,
  {c2baedb2-68d8-4f64-8004-031d71aa6381}, !- Handle
  F8 SWall SWA,                           !- Name
  Wall,                                   !- Surface Type
  ,                                       !- Construction Name
  {d84ee205-d43e-4943-a790-84b8bf6f9ca4}, !- Space Name
  Outdoors,                               !- Outside Boundary Condition
  ,                                       !- Outside Boundary Condition Object
  SunExposed,                             !- Sun Exposure
  WindExposed,                            !- Wind Exposure
  ,                                       !- View Factor to Ground
  ,                                       !- Number of Vertices
  0, 0, 3.0478,                           !- X,Y,Z Vertex 1 {m}
  0, 0, 0,                                !- X,Y,Z Vertex 2 {m}
  11.5818, 0, 0,                          !- X,Y,Z Vertex 3 {m}
  11.5818, 0, 3.0478;                     !- X,Y,Z Vertex 4 {m}

OS:Space,
  {d84ee205-d43e-4943-a790-84b8bf6f9ca4}, !- Handle
  F8 SW Apartment,                        !- Name
  {406349fc-ee64-4618-aaa2-892652ede66c}, !- Space Type Name
  ,                                       !- Default Construction Set Name
  ,                                       !- Default Schedule Set Name
  0,                                      !- Direction of Relative North {deg}
  0,                                      !- X Origin {m}
  0,                                      !- Y Origin {m}
  21.3349,                                !- Z Origin {m}
  {544f7c18-a05a-475d-bc1c-052b70a7250f}, !- Building Story Name
  {6564ad2b-913d-4d5e-819b-76c686a7d16e}, !- Thermal Zone Name
  Yes;                                    !- Part of Total Floor Area

OS:Space,
  {f9e9cc1b-92b2-4137-a907-8ec0bcb2e213}, !- Handle
  F2 NE Apartment,                        !- Name
  {406349fc-ee64-4618-aaa2-892652ede66c}, !- Space Type Name
  ,                                       !- Default Construction Set Name
  ,                                       !- Default Schedule Set Name
  0,                                      !- Direction of Relative North {deg}
  34.7455,                                !- X Origin {m}
  9.2959,                                 !- Y Origin {m}
  3.0478,                                 !- Z Origin {m}
  {a2b638f1-1130-432a-a5c4-93a04fafe48c}, !- Building Story Name
  {7c489b44-37b0-42f5-a01f-48042ee3dede}, !- Thermal Zone Name
  Yes;                                    !- Part of Total Floor Area

OS:Space,
  {f2b46cc0-f376-4431-adc7-cb1e05181b48}, !- Handle
  F6 NE Apartment,                        !- Name
  {406349fc-ee64-4618-aaa2-892652ede66c}, !- Space Type Name
  ,                                       !- Default Construction Set Name
  ,                                       !- Default Schedule Set Name
  0,                                      !- Direction of Relative North {deg}
  34.7455,                                !- X Origin {m}
  9.2959,                                 !- Y Origin {m}
  15.2393,                                !- Z Origin {m}
  {4c48a6b9-e181-49d3-8080-cdda26af9999}, !- Building Story Name
  {12eec181-6a28-4d43-b903-2856558a7202}, !- Thermal Zone Name
  Yes;                                    !- Part of Total Floor Area

OS:Surface,
  {ffe26593-1cf4-4cd6-a098-a697141ba7a8}, !- Handle
  F9 Ceilin SEA,                          !- Name
  RoofCeiling,                            !- Surface Type
  ,                                       !- Construction Name
  {6d8d751c-74e3-4a6c-bcc3-b72e7538a2fb}, !- Space Name
  Surface,                                !- Outside Boundary Condition
  {816627ba-346d-4684-b88f-638da08c723e}, !- Outside Boundary Condition Object
  NoSun,                                  !- Sun Exposure
  NoWind,                                 !- Wind Exposure
  ,                                       !- View Factor to Ground
  ,                                       !- Number of Vertices
  11.5818, 0, 3.0478,                     !- X,Y,Z Vertex 1 {m}
  11.5818, 7.6196, 3.0478,                !- X,Y,Z Vertex 2 {m}
  0, 7.6196, 3.0478,                      !- X,Y,Z Vertex 3 {m}
  0, 0, 3.0478;                           !- X,Y,Z Vertex 4 {m}

OS:Space,
  {6d8d751c-74e3-4a6c-bcc3-b72e7538a2fb}, !- Handle
  F9 SE Apartment,                        !- Name
  {406349fc-ee64-4618-aaa2-892652ede66c}, !- Space Type Name
  ,                                       !- Default Construction Set Name
  ,                                       !- Default Schedule Set Name
  0,                                      !- Direction of Relative North {deg}
  34.7455,                                !- X Origin {m}
  0,                                      !- Y Origin {m}
  24.3828,                                !- Z Origin {m}
  {fd521446-1452-42b9-af2b-cf7aee8be80c}, !- Building Story Name
  {c38ec487-5d19-4c4c-ad21-3cfec1f350f5}, !- Thermal Zone Name
  Yes;                                    !- Part of Total Floor Area

OS:Space,
  {c031d425-efac-47ef-88ee-0c430e4aac2b}, !- Handle
  F4 N1 Apartment,                        !- Name
  {406349fc-ee64-4618-aaa2-892652ede66c}, !- Space Type Name
  ,                                       !- Default Construction Set Name
  ,                                       !- Default Schedule Set Name
  0,                                      !- Direction of Relative North {deg}
  11.5818,                                !- X Origin {m}
  9.2959,                                 !- Y Origin {m}
  9.1435,                                 !- Z Origin {m}
  {ad88f024-9d05-417c-8cbb-5bde3adb58d4}, !- Building Story Name
  {e3e39ff9-6489-4f0d-8b16-1cee00b73c96}, !- Thermal Zone Name
  Yes;                                    !- Part of Total Floor Area

OS:Space,
  {d7128868-016c-4937-b3f8-2473a58614ad}, !- Handle
  F6 S1 Apartment,                        !- Name
  {406349fc-ee64-4618-aaa2-892652ede66c}, !- Space Type Name
  ,                                       !- Default Construction Set Name
  ,                                       !- Default Schedule Set Name
  0,                                      !- Direction of Relative North {deg}
  11.5818,                                !- X Origin {m}
  0,                                      !- Y Origin {m}
  15.2393,                                !- Z Origin {m}
  {4c48a6b9-e181-49d3-8080-cdda26af9999}, !- Building Story Name
  {edcf599f-3395-4a3c-9cb3-f8e601089492}, !- Thermal Zone Name
  Yes;                                    !- Part of Total Floor Area

OS:Surface,
  {66997cdc-989a-4c86-86c6-725af0a433e8}, !- Handle
  F2 SIWall N1A,                          !- Name
  Wall,                                   !- Surface Type
  ,                                       !- Construction Name
  {c30af11b-47c9-403d-aa2d-639be6e603e7}, !- Space Name
  Surface,                                !- Outside Boundary Condition
  {46f10c23-12c3-4ca0-bb21-85d0a528f246}, !- Outside Boundary Condition Object
  NoSun,                                  !- Sun Exposure
  NoWind,                                 !- Wind Exposure
  0,                                      !- View Factor to Ground
  ,                                       !- Number of Vertices
  0, 0, 3.0478,                           !- X,Y,Z Vertex 1 {m}
  0, 0, 0,                                !- X,Y,Z Vertex 2 {m}
  11.5818, 0, 0,                          !- X,Y,Z Vertex 3 {m}
  11.5818, 0, 3.0478;                     !- X,Y,Z Vertex 4 {m}

OS:Space,
  {c30af11b-47c9-403d-aa2d-639be6e603e7}, !- Handle
  F2 N1 Apartment,                        !- Name
  {406349fc-ee64-4618-aaa2-892652ede66c}, !- Space Type Name
  ,                                       !- Default Construction Set Name
  ,                                       !- Default Schedule Set Name
  0,                                      !- Direction of Relative North {deg}
  11.5818,                                !- X Origin {m}
  9.2959,                                 !- Y Origin {m}
  3.0478,                                 !- Z Origin {m}
  {a2b638f1-1130-432a-a5c4-93a04fafe48c}, !- Building Story Name
  {bb7dee94-4b0c-4669-99e8-0686c8ad481c}, !- Thermal Zone Name
  Yes;                                    !- Part of Total Floor Area

OS:Space,
  {9e44e8ab-7dfa-4ab1-953b-09c208185d23}, !- Handle
  F2 Corridor,                            !- Name
  {258a6b63-ee96-43ad-9750-1518d88a15dd}, !- Space Type Name
  ,                                       !- Default Construction Set Name
  ,                                       !- Default Schedule Set Name
  0,                                      !- Direction of Relative North {deg}
  0,                                      !- X Origin {m}
  7.6196,                                 !- Y Origin {m}
  3.0478,                                 !- Z Origin {m}
  {a2b638f1-1130-432a-a5c4-93a04fafe48c}, !- Building Story Name
  {2d6aaea4-9a44-4c41-a9ef-1c01e7f75d92}, !- Thermal Zone Name
  Yes;                                    !- Part of Total Floor Area

OS:Surface,
  {46f10c23-12c3-4ca0-bb21-85d0a528f246}, !- Handle
  F2 SIWall N1A Reversed,                 !- Name
  Wall,                                   !- Surface Type
  ,                                       !- Construction Name
  {9e44e8ab-7dfa-4ab1-953b-09c208185d23}, !- Space Name
  Surface,                                !- Outside Boundary Condition
  {66997cdc-989a-4c86-86c6-725af0a433e8}, !- Outside Boundary Condition Object
  NoSun,                                  !- Sun Exposure
  NoWind,                                 !- Wind Exposure
  ,                                       !- View Factor to Ground
  ,                                       !- Number of Vertices
  23.1636, 1.6763, 3.0478,                !- X,Y,Z Vertex 1 {m}
  23.1636, 1.6763, 0,                     !- X,Y,Z Vertex 2 {m}
  11.5818, 1.6763, 0,                     !- X,Y,Z Vertex 3 {m}
  11.5818, 1.6763, 3.0478;                !- X,Y,Z Vertex 4 {m}

OS:Space,
  {9a43b8f6-905b-423a-94ab-c835c3bc5b36}, !- Handle
  F7 S1 Apartment,                        !- Name
  {406349fc-ee64-4618-aaa2-892652ede66c}, !- Space Type Name
  ,                                       !- Default Construction Set Name
  ,                                       !- Default Schedule Set Name
  0,                                      !- Direction of Relative North {deg}
  11.5818,                                !- X Origin {m}
  0,                                      !- Y Origin {m}
  18.2871,                                !- Z Origin {m}
  {7359995c-5e35-43af-b359-334de67128e9}, !- Building Story Name
  {5944ed92-ae73-4afb-b0e2-d740af91e586}, !- Thermal Zone Name
  Yes;                                    !- Part of Total Floor Area

OS:Surface,
  {08ec81f5-46fa-465d-8e7f-200a96dbc6c3}, !- Handle
  F2 SWall S1A,                           !- Name
  Wall,                                   !- Surface Type
  ,                                       !- Construction Name
  {b5fa5830-dde1-4724-b2a1-f97f7f21d0cf}, !- Space Name
  Outdoors,                               !- Outside Boundary Condition
  ,                                       !- Outside Boundary Condition Object
  SunExposed,                             !- Sun Exposure
  WindExposed,                            !- Wind Exposure
  ,                                       !- View Factor to Ground
  ,                                       !- Number of Vertices
  0, 0, 3.0478,                           !- X,Y,Z Vertex 1 {m}
  0, 0, 0,                                !- X,Y,Z Vertex 2 {m}
  11.5818, 0, 0,                          !- X,Y,Z Vertex 3 {m}
  11.5818, 0, 3.0478;                     !- X,Y,Z Vertex 4 {m}

OS:Space,
  {b5fa5830-dde1-4724-b2a1-f97f7f21d0cf}, !- Handle
  F2 S1 Apartment,                        !- Name
  {406349fc-ee64-4618-aaa2-892652ede66c}, !- Space Type Name
  ,                                       !- Default Construction Set Name
  ,                                       !- Default Schedule Set Name
  0,                                      !- Direction of Relative North {deg}
  11.5818,                                !- X Origin {m}
  0,                                      !- Y Origin {m}
  3.0478,                                 !- Z Origin {m}
  {a2b638f1-1130-432a-a5c4-93a04fafe48c}, !- Building Story Name
  {56288621-8dd3-4b99-b443-125b6836d32f}, !- Thermal Zone Name
  Yes;                                    !- Part of Total Floor Area

OS:Space,
  {1ef97cef-75c1-4f4e-9f4e-37524f8b597c}, !- Handle
  F4 S2 Apartment,                        !- Name
  {406349fc-ee64-4618-aaa2-892652ede66c}, !- Space Type Name
  ,                                       !- Default Construction Set Name
  ,                                       !- Default Schedule Set Name
  0,                                      !- Direction of Relative North {deg}
  23.1637,                                !- X Origin {m}
  0,                                      !- Y Origin {m}
  9.1435,                                 !- Z Origin {m}
  {ad88f024-9d05-417c-8cbb-5bde3adb58d4}, !- Building Story Name
  {e83d387c-6e9c-44bb-9c99-dd5e270c632a}, !- Thermal Zone Name
  Yes;                                    !- Part of Total Floor Area

OS:Space,
  {d24601fb-ccfe-47b3-a853-b00044fde72b}, !- Handle
  F3 SE Apartment,                        !- Name
  {406349fc-ee64-4618-aaa2-892652ede66c}, !- Space Type Name
  ,                                       !- Default Construction Set Name
  ,                                       !- Default Schedule Set Name
  0,                                      !- Direction of Relative North {deg}
  34.7455,                                !- X Origin {m}
  0,                                      !- Y Origin {m}
  6.0957,                                 !- Z Origin {m}
  {fc0c2f5c-fab2-4c47-9af9-34bf95affbfe}, !- Building Story Name
  {ae899884-2dee-40eb-a96c-836a4a9e4142}, !- Thermal Zone Name
  Yes;                                    !- Part of Total Floor Area

OS:Surface,
  {47f17958-51dd-4058-813e-7f29f7ed0afa}, !- Handle
  F7 EWall SEA,                           !- Name
  Wall,                                   !- Surface Type
  ,                                       !- Construction Name
  {3c8b128d-f97b-42f5-bc14-7e13e58947b8}, !- Space Name
  Outdoors,                               !- Outside Boundary Condition
  ,                                       !- Outside Boundary Condition Object
  SunExposed,                             !- Sun Exposure
  WindExposed,                            !- Wind Exposure
  ,                                       !- View Factor to Ground
  ,                                       !- Number of Vertices
  11.5818, 0, 3.0478,                     !- X,Y,Z Vertex 1 {m}
  11.5818, 0, 0,                          !- X,Y,Z Vertex 2 {m}
  11.5818, 7.6196, 0,                     !- X,Y,Z Vertex 3 {m}
  11.5818, 7.6196, 3.0478;                !- X,Y,Z Vertex 4 {m}

OS:Space,
  {3c8b128d-f97b-42f5-bc14-7e13e58947b8}, !- Handle
  F7 SE Apartment,                        !- Name
  {406349fc-ee64-4618-aaa2-892652ede66c}, !- Space Type Name
  ,                                       !- Default Construction Set Name
  ,                                       !- Default Schedule Set Name
  0,                                      !- Direction of Relative North {deg}
  34.7455,                                !- X Origin {m}
  0,                                      !- Y Origin {m}
  18.2871,                                !- Z Origin {m}
  {7359995c-5e35-43af-b359-334de67128e9}, !- Building Story Name
  {efa1bc8a-c5c6-4e0c-bd05-5dfd303f8ce3}, !- Thermal Zone Name
  Yes;                                    !- Part of Total Floor Area

OS:Space,
  {d4adf65e-1e8f-4170-a802-ebd0f65052d3}, !- Handle
  F6 SE Apartment,                        !- Name
  {406349fc-ee64-4618-aaa2-892652ede66c}, !- Space Type Name
  ,                                       !- Default Construction Set Name
  ,                                       !- Default Schedule Set Name
  0,                                      !- Direction of Relative North {deg}
  34.7455,                                !- X Origin {m}
  0,                                      !- Y Origin {m}
  15.2393,                                !- Z Origin {m}
  {4c48a6b9-e181-49d3-8080-cdda26af9999}, !- Building Story Name
  {a9f5774f-f516-47fa-9a1f-ff6bed1d0bfa}, !- Thermal Zone Name
  Yes;                                    !- Part of Total Floor Area

OS:Space,
  {82fcbae9-2e3b-4316-8c40-1df5eb23239a}, !- Handle
  F7 NW Apartment,                        !- Name
  {406349fc-ee64-4618-aaa2-892652ede66c}, !- Space Type Name
  ,                                       !- Default Construction Set Name
  ,                                       !- Default Schedule Set Name
  0,                                      !- Direction of Relative North {deg}
  0,                                      !- X Origin {m}
  9.2959,                                 !- Y Origin {m}
  18.2871,                                !- Z Origin {m}
  {7359995c-5e35-43af-b359-334de67128e9}, !- Building Story Name
  {5fedc76b-a527-4975-a6b1-360966187a3e}, !- Thermal Zone Name
  Yes;                                    !- Part of Total Floor Area

OS:Surface,
  {ee0d95cd-b276-4975-8d97-f0d984b0754d}, !- Handle
  F7 NWall N2A,                           !- Name
  Wall,                                   !- Surface Type
  ,                                       !- Construction Name
  {29847cc0-7d35-4f46-abf3-53da24d1af64}, !- Space Name
  Outdoors,                               !- Outside Boundary Condition
  ,                                       !- Outside Boundary Condition Object
  SunExposed,                             !- Sun Exposure
  WindExposed,                            !- Wind Exposure
  ,                                       !- View Factor to Ground
  ,                                       !- Number of Vertices
  11.5818, 7.6196, 3.0478,                !- X,Y,Z Vertex 1 {m}
  11.5818, 7.6196, 0,                     !- X,Y,Z Vertex 2 {m}
  0, 7.6196, 0,                           !- X,Y,Z Vertex 3 {m}
  0, 7.6196, 3.0478;                      !- X,Y,Z Vertex 4 {m}

OS:Space,
  {29847cc0-7d35-4f46-abf3-53da24d1af64}, !- Handle
  F7 N2 Apartment,                        !- Name
  {406349fc-ee64-4618-aaa2-892652ede66c}, !- Space Type Name
  ,                                       !- Default Construction Set Name
  ,                                       !- Default Schedule Set Name
  0,                                      !- Direction of Relative North {deg}
  23.1637,                                !- X Origin {m}
  9.2959,                                 !- Y Origin {m}
  18.2871,                                !- Z Origin {m}
  {7359995c-5e35-43af-b359-334de67128e9}, !- Building Story Name
  {2d2a6a5c-6da5-4b81-924c-aa867aa6c13c}, !- Thermal Zone Name
  Yes;                                    !- Part of Total Floor Area

OS:Space,
  {a7e0c9ce-9475-4893-9d2d-f3066bb6019d}, !- Handle
  M NE Apartment,                         !- Name
  {406349fc-ee64-4618-aaa2-892652ede66c}, !- Space Type Name
  ,                                       !- Default Construction Set Name
  ,                                       !- Default Schedule Set Name
  0,                                      !- Direction of Relative North {deg}
  34.7455,                                !- X Origin {m}
  9.2959,                                 !- Y Origin {m}
  12.1914,                                !- Z Origin {m}
  {2de45b79-1ee4-4f93-9330-276d005d7549}, !- Building Story Name
  {4f8a3eb1-8049-44ac-964c-3cc1cff92660}, !- Thermal Zone Name
  Yes;                                    !- Part of Total Floor Area

OS:Space,
  {40b2267f-7f9a-490d-a474-b5adf60eb09e}, !- Handle
  F7 SW Apartment,                        !- Name
  {406349fc-ee64-4618-aaa2-892652ede66c}, !- Space Type Name
  ,                                       !- Default Construction Set Name
  ,                                       !- Default Schedule Set Name
  0,                                      !- Direction of Relative North {deg}
  0,                                      !- X Origin {m}
  0,                                      !- Y Origin {m}
  18.2871,                                !- Z Origin {m}
  {7359995c-5e35-43af-b359-334de67128e9}, !- Building Story Name
  {1ceabca0-4a72-48e8-826e-40605b4896c4}, !- Thermal Zone Name
  Yes;                                    !- Part of Total Floor Area

OS:Space,
  {bcf7eafc-5d93-43c5-a057-ead256103515}, !- Handle
  F3 NW Apartment,                        !- Name
  {406349fc-ee64-4618-aaa2-892652ede66c}, !- Space Type Name
  ,                                       !- Default Construction Set Name
  ,                                       !- Default Schedule Set Name
  0,                                      !- Direction of Relative North {deg}
  0,                                      !- X Origin {m}
  9.2959,                                 !- Y Origin {m}
  6.0957,                                 !- Z Origin {m}
  {fc0c2f5c-fab2-4c47-9af9-34bf95affbfe}, !- Building Story Name
  {94e2c561-bf7c-4cbb-9254-a11d231ff5f4}, !- Thermal Zone Name
  Yes;                                    !- Part of Total Floor Area

OS:Space,
  {4d7b84bd-8948-48e8-a916-25cb48ae7f16}, !- Handle
  F4 S1 Apartment,                        !- Name
  {406349fc-ee64-4618-aaa2-892652ede66c}, !- Space Type Name
  ,                                       !- Default Construction Set Name
  ,                                       !- Default Schedule Set Name
  0,                                      !- Direction of Relative North {deg}
  11.5818,                                !- X Origin {m}
  0,                                      !- Y Origin {m}
  9.1435,                                 !- Z Origin {m}
  {ad88f024-9d05-417c-8cbb-5bde3adb58d4}, !- Building Story Name
  {7fb0f80d-6472-46eb-a9b7-76a0c45383e7}, !- Thermal Zone Name
  Yes;                                    !- Part of Total Floor Area

OS:Surface,
  {9c13f8a2-d3b7-4ea6-b683-2270c6df213f}, !- Handle
  F8 NWall N1A,                           !- Name
  Wall,                                   !- Surface Type
  ,                                       !- Construction Name
  {111adf91-7278-4630-af41-b49ed431c4e9}, !- Space Name
  Outdoors,                               !- Outside Boundary Condition
  ,                                       !- Outside Boundary Condition Object
  SunExposed,                             !- Sun Exposure
  WindExposed,                            !- Wind Exposure
  ,                                       !- View Factor to Ground
  ,                                       !- Number of Vertices
  11.5818, 7.6196, 3.0478,                !- X,Y,Z Vertex 1 {m}
  11.5818, 7.6196, 0,                     !- X,Y,Z Vertex 2 {m}
  0, 7.6196, 0,                           !- X,Y,Z Vertex 3 {m}
  0, 7.6196, 3.0478;                      !- X,Y,Z Vertex 4 {m}

OS:Space,
  {111adf91-7278-4630-af41-b49ed431c4e9}, !- Handle
  F8 N1 Apartment,                        !- Name
  {406349fc-ee64-4618-aaa2-892652ede66c}, !- Space Type Name
  ,                                       !- Default Construction Set Name
  ,                                       !- Default Schedule Set Name
  0,                                      !- Direction of Relative North {deg}
  11.5818,                                !- X Origin {m}
  9.2959,                                 !- Y Origin {m}
  21.3349,                                !- Z Origin {m}
  {544f7c18-a05a-475d-bc1c-052b70a7250f}, !- Building Story Name
  {9666db88-5f89-4212-9a1e-b1170d912f83}, !- Thermal Zone Name
  Yes;                                    !- Part of Total Floor Area

OS:Surface,
  {d32fef61-ebd9-4a32-99c7-c89b01865c7c}, !- Handle
  F7 GFloor NEA,                          !- Name
  Floor,                                  !- Surface Type
  ,                                       !- Construction Name
  {a6ba6668-68aa-4f83-b33b-1e7ef3aff5fe}, !- Space Name
  Surface,                                !- Outside Boundary Condition
  {bc165e41-1de8-4f56-9c6e-4eb6e8f18e7f}, !- Outside Boundary Condition Object
  NoSun,                                  !- Sun Exposure
  NoWind,                                 !- Wind Exposure
  ,                                       !- View Factor to Ground
  ,                                       !- Number of Vertices
  11.5818, 7.6196, 0,                     !- X,Y,Z Vertex 1 {m}
  11.5818, 0, 0,                          !- X,Y,Z Vertex 2 {m}
  0, 0, 0,                                !- X,Y,Z Vertex 3 {m}
  0, 7.6196, 0;                           !- X,Y,Z Vertex 4 {m}

OS:Space,
  {a6ba6668-68aa-4f83-b33b-1e7ef3aff5fe}, !- Handle
  F7 NE Apartment,                        !- Name
  {406349fc-ee64-4618-aaa2-892652ede66c}, !- Space Type Name
  ,                                       !- Default Construction Set Name
  ,                                       !- Default Schedule Set Name
  0,                                      !- Direction of Relative North {deg}
  34.7455,                                !- X Origin {m}
  9.2959,                                 !- Y Origin {m}
  18.2871,                                !- Z Origin {m}
  {7359995c-5e35-43af-b359-334de67128e9}, !- Building Story Name
  {851e62fc-674f-485c-a485-031ce607f975}, !- Thermal Zone Name
  Yes;                                    !- Part of Total Floor Area

OS:Space,
  {d8cc7b7c-958f-4752-b8c8-ddb4c88825f5}, !- Handle
  F8 N2 Apartment,                        !- Name
  {406349fc-ee64-4618-aaa2-892652ede66c}, !- Space Type Name
  ,                                       !- Default Construction Set Name
  ,                                       !- Default Schedule Set Name
  0,                                      !- Direction of Relative North {deg}
  23.1637,                                !- X Origin {m}
  9.2959,                                 !- Y Origin {m}
  21.3349,                                !- Z Origin {m}
  {544f7c18-a05a-475d-bc1c-052b70a7250f}, !- Building Story Name
  {94338339-b5ef-43a2-ab55-c30a9db19961}, !- Thermal Zone Name
  Yes;                                    !- Part of Total Floor Area

OS:Space,
  {7912e142-bcd1-4ce7-bc21-aaffae128464}, !- Handle
  F9 S1 Apartment,                        !- Name
  {406349fc-ee64-4618-aaa2-892652ede66c}, !- Space Type Name
  ,                                       !- Default Construction Set Name
  ,                                       !- Default Schedule Set Name
  0,                                      !- Direction of Relative North {deg}
  11.5818,                                !- X Origin {m}
  0,                                      !- Y Origin {m}
  24.3828,                                !- Z Origin {m}
  {fd521446-1452-42b9-af2b-cf7aee8be80c}, !- Building Story Name
  {c2a6ff29-208e-4b85-8778-64e9e22e5bf1}, !- Thermal Zone Name
  Yes;                                    !- Part of Total Floor Area

OS:Surface,
  {b2cf5e06-dae7-4bde-a02f-29f82eba43cd}, !- Handle
  m NIWall S1A,                           !- Name
  Wall,                                   !- Surface Type
  ,                                       !- Construction Name