
OS:Version,
  {e8310898-3cae-4ed4-a66c-b460ce951bfb}, !- Handle
  3.0.1;                                  !- Version Identifier

OS:ScheduleTypeLimits,
  {fe824477-9fb9-4985-8fda-2ed53c9e6b73}, !- Handle
  Always On Discrete Limits,              !- Name
  0,                                      !- Lower Limit Value
  1,                                      !- Upper Limit Value
  Discrete,                               !- Numeric Type
  Availability;                           !- Unit Type

OS:Site,
  {6c5ce5cc-dd38-4994-9d2b-3c53e7d62738}, !- Handle
  Winnipeg-Richardson Intl AP_MB_CAN,     !- Name
  49.917,                                 !- Latitude {deg}
  -97.233,                                !- Longitude {deg}
  -6,                                     !- Time Zone {hr}
  238.7,                                  !- Elevation {m}
  City;                                   !- Terrain

OS:SimulationControl,
  {4a5c5234-564e-4da6-b9f2-aebcf5c6119f}, !- Handle
  Yes,                                    !- Do Zone Sizing Calculation
  Yes,                                    !- Do System Sizing Calculation
  No,                                     !- Do Plant Sizing Calculation
  No,                                     !- Run Simulation for Sizing Periods
  Yes,                                    !- Run Simulation for Weather File Run Periods
  0.04,                                   !- Loads Convergence Tolerance Value {W}
  0.4,                                    !- Temperature Convergence Tolerance Value {deltaC}
  FullExterior,                           !- Solar Distribution
  25,                                     !- Maximum Number of Warmup Days
  6,                                      !- Minimum Number of Warmup Days
  No,                                     !- Do HVAC Sizing Simulation for Sizing Periods
  1;                                      !- Maximum Number of HVAC Sizing Simulation Passes

OS:Space,
  {c3b16dd2-0b7e-41f9-9554-37b64a961382}, !- Handle
  T SE Apartment,                         !- Name
  {c8981956-15db-48cd-9dc9-fdbfec63fa3c}, !- Space Type Name
  ,                                       !- Default Construction Set Name
  ,                                       !- Default Schedule Set Name
  0,                                      !- Direction of Relative North {deg}
  34.7455054899131,                       !- X Origin {m}
  0,                                      !- Y Origin {m}
  9.14355407629293,                       !- Z Origin {m}
  {7a967551-5561-4b56-b05a-af0754ca7895}, !- Building Story Name
  {a608744a-eaae-4495-8774-2db0070842a0}; !- Thermal Zone Name

OS:Space,
  {ab4b5dbb-3b66-43ba-b6e3-9e7c2c0d8d03}, !- Handle
  G Corridor,                             !- Name
  {ffd7adfe-4499-46ec-bfc5-f7315431281a}, !- Space Type Name
  ,                                       !- Default Construction Set Name
  ,                                       !- Default Schedule Set Name
  0,                                      !- Direction of Relative North {deg}
  0,                                      !- X Origin {m}
  7.61962839691078,                       !- Y Origin {m}
  0,                                      !- Z Origin {m}
  {adca533c-0468-407c-b890-d518ccf74735}, !- Building Story Name
  {9c5424fa-2f0b-40f0-8672-71507a908eca}; !- Thermal Zone Name

OS:Surface,
  {c1f9405a-3bf7-485c-850c-d955771dc9f2}, !- Handle
  t WWall SWA,                            !- Name
  Wall,                                   !- Surface Type
  ,                                       !- Construction Name
  {66195dd7-4158-483d-b874-3388a680b571}, !- Space Name
  Outdoors,                               !- Outside Boundary Condition
  ,                                       !- Outside Boundary Condition Object
  SunExposed,                             !- Sun Exposure
  WindExposed,                            !- Wind Exposure
  ,                                       !- View Factor to Ground
  ,                                       !- Number of Vertices
  0, 7.619628, 3.047851,                  !- X,Y,Z Vertex 1 {m}
  0, 7.619628, 0,                         !- X,Y,Z Vertex 2 {m}
  0, 0, 0,                                !- X,Y,Z Vertex 3 {m}
  0, 0, 3.047851;                         !- X,Y,Z Vertex 4 {m}

OS:Space,
  {66195dd7-4158-483d-b874-3388a680b571}, !- Handle
  T SW Apartment,                         !- Name
  {c8981956-15db-48cd-9dc9-fdbfec63fa3c}, !- Space Type Name
  ,                                       !- Default Construction Set Name
  ,                                       !- Default Schedule Set Name
  0,                                      !- Direction of Relative North {deg}
  0,                                      !- X Origin {m}
  0,                                      !- Y Origin {m}
  9.14355407629293,                       !- Z Origin {m}
  {7a967551-5561-4b56-b05a-af0754ca7895}, !- Building Story Name
  {300980bf-e0c4-47f8-a989-172bf86c4a53}; !- Thermal Zone Name

OS:Surface,
  {e93a1e7c-48fb-4ed9-ac7e-05134be3a756}, !- Handle
  m EIWALL S2A,                           !- Name
  Wall,                                   !- Surface Type
  ,                                       !- Construction Name
  {6912ab22-717f-4315-a8ff-9c62dd3bb665}, !- Space Name
  Surface,                                !- Outside Boundary Condition
  {eb40ffd2-f2df-4f54-8cf1-a3497185a43a}, !- Outside Boundary Condition Object
  NoSun,                                  !- Sun Exposure
  NoWind,                                 !- Wind Exposure
  ,                                       !- View Factor to Ground
  ,                                       !- Number of Vertices
  11.581835, 0, 3.047851,                 !- X,Y,Z Vertex 1 {m}
  11.581835, 0, 0,                        !- X,Y,Z Vertex 2 {m}
  11.581835, 7.619628, 0,                 !- X,Y,Z Vertex 3 {m}
  11.581835, 7.619628, 3.047851;          !- X,Y,Z Vertex 4 {m}

OS:Space,
  {6912ab22-717f-4315-a8ff-9c62dd3bb665}, !- Handle
  M S2 Apartment,                         !- Name
  {c8981956-15db-48cd-9dc9-fdbfec63fa3c}, !- Space Type Name
  ,                                       !- Default Construction Set Name
  ,                                       !- Default Schedule Set Name
  0,                                      !- Direction of Relative North {deg}
  23.1636703266088,                       !- X Origin {m}
  0,                                      !- Y Origin {m}
  3.04785135876431,                       !- Z Origin {m}
  {271f3401-76be-4edd-8369-7d5a808299e2}, !- Building Story Name
  {eb8f77be-2d14-4e47-b823-62666b2b61d1}; !- Thermal Zone Name

OS:Space,
  {522c5e6f-296d-41b5-be13-5d90fe955163}, !- Handle
  M SE Apartment,                         !- Name
  {c8981956-15db-48cd-9dc9-fdbfec63fa3c}, !- Space Type Name
  ,                                       !- Default Construction Set Name
  ,                                       !- Default Schedule Set Name
  0,                                      !- Direction of Relative North {deg}
  34.7455054899131,                       !- X Origin {m}
  0,                                      !- Y Origin {m}
  3.04785135876431,                       !- Z Origin {m}
  {271f3401-76be-4edd-8369-7d5a808299e2}, !- Building Story Name
  {a761c487-0a3d-448c-99cc-acef3dc605c2}; !- Thermal Zone Name

OS:Surface,
  {eb40ffd2-f2df-4f54-8cf1-a3497185a43a}, !- Handle
  m EIWALL S2A Reversed,                  !- Name
  Wall,                                   !- Surface Type
  ,                                       !- Construction Name
  {522c5e6f-296d-41b5-be13-5d90fe955163}, !- Space Name
  Surface,                                !- Outside Boundary Condition
  {e93a1e7c-48fb-4ed9-ac7e-05134be3a756}, !- Outside Boundary Condition Object
  NoSun,                                  !- Sun Exposure
  NoWind,                                 !- Wind Exposure
  ,                                       !- View Factor to Ground
  ,                                       !- Number of Vertices
  -1.63304301636913e-07, 7.619628, 3.047851, !- X,Y,Z Vertex 1 {m}
  -1.63304301636913e-07, 7.619628, 0,     !- X,Y,Z Vertex 2 {m}
  0, 0, 0,                                !- X,Y,Z Vertex 3 {m}
  0, 0, 3.047851;                         !- X,Y,Z Vertex 4 {m}

OS:Surface,
  {fdb38349-a07f-4613-871c-2a0d97c95f4f}, !- Handle
  t SIWall N1A,                           !- Name
  Wall,                                   !- Surface Type
  ,                                       !- Construction Name
  {22d8b173-d774-48ce-9aac-7d6a7840f33f}, !- Space Name
  Surface,                                !- Outside Boundary Condition
  {8f8d4456-97e9-4b0f-ab22-f64fe1c8d8f2}, !- Outside Boundary Condition Object
  NoSun,                                  !- Sun Exposure
  NoWind,                                 !- Wind Exposure
  ,                                       !- View Factor to Ground
  ,                                       !- Number of Vertices
  0, 0, 3.047851,                         !- X,Y,Z Vertex 1 {m}
  0, 0, 0,                                !- X,Y,Z Vertex 2 {m}
  11.581835, 0, 0,                        !- X,Y,Z Vertex 3 {m}
  11.581835, 0, 3.047851;                 !- X,Y,Z Vertex 4 {m}

OS:Space,
  {22d8b173-d774-48ce-9aac-7d6a7840f33f}, !- Handle
  T N1 Apartment,                         !- Name
  {c8981956-15db-48cd-9dc9-fdbfec63fa3c}, !- Space Type Name
  ,                                       !- Default Construction Set Name
  ,                                       !- Default Schedule Set Name
  0,                                      !- Direction of Relative North {deg}
  11.5818351633044,                       !- X Origin {m}
  9.29594664423115,                       !- Y Origin {m}
  9.14355407629293,                       !- Z Origin {m}
  {7a967551-5561-4b56-b05a-af0754ca7895}, !- Building Story Name
  {75fee5a2-994a-4d43-9be6-aad8fd70741f}; !- Thermal Zone Name

OS:Space,
  {320a911a-e18e-4155-bcf9-b9823aa5a2c5}, !- Handle
  T Corridor,                             !- Name
  {ffd7adfe-4499-46ec-bfc5-f7315431281a}, !- Space Type Name
  ,                                       !- Default Construction Set Name
  ,                                       !- Default Schedule Set Name
  ,                                       !- Direction of Relative North {deg}
  0,                                      !- X Origin {m}
  7.61962839691078,                       !- Y Origin {m}
  9.14355407629293,                       !- Z Origin {m}
  {7a967551-5561-4b56-b05a-af0754ca7895}, !- Building Story Name
  {447eea7d-4e82-4c0f-a5e8-ae87797f0eb0}; !- Thermal Zone Name

OS:Surface,
  {8f8d4456-97e9-4b0f-ab22-f64fe1c8d8f2}, !- Handle
  t SIWall N1A Reversed,                  !- Name
  Wall,                                   !- Surface Type
  ,                                       !- Construction Name
  {320a911a-e18e-4155-bcf9-b9823aa5a2c5}, !- Space Name
  Surface,                                !- Outside Boundary Condition
  {fdb38349-a07f-4613-871c-2a0d97c95f4f}, !- Outside Boundary Condition Object
  NoSun,                                  !- Sun Exposure
  NoWind,                                 !- Wind Exposure
  ,                                       !- View Factor to Ground
  ,                                       !- Number of Vertices
  23.1636701633044, 1.67631824732037, 3.047851, !- X,Y,Z Vertex 1 {m}
  23.1636701633044, 1.67631824732037, 0,  !- X,Y,Z Vertex 2 {m}
  11.5818351633044, 1.67631824732037, 0,  !- X,Y,Z Vertex 3 {m}
  11.5818351633044, 1.67631824732037, 3.047851; !- X,Y,Z Vertex 4 {m}

OS:Space,
  {9167359e-9688-41e4-ae83-b41424807596}, !- Handle
  T N2 Apartment,                         !- Name
  {c8981956-15db-48cd-9dc9-fdbfec63fa3c}, !- Space Type Name
  ,                                       !- Default Construction Set Name
  ,                                       !- Default Schedule Set Name
  0,                                      !- Direction of Relative North {deg}
  23.1636703266088,                       !- X Origin {m}
  9.29594664423115,                       !- Y Origin {m}
  9.14355407629293,                       !- Z Origin {m}
  {7a967551-5561-4b56-b05a-af0754ca7895}, !- Building Story Name
  {303c552f-15ee-495a-a604-e81f2fb92a7b}; !- Thermal Zone Name

OS:Surface,
  {0464b6fc-0025-4ea5-80cb-899a8d9af70c}, !- Handle
  t NWall N2A,                            !- Name
  Wall,                                   !- Surface Type
  ,                                       !- Construction Name
  {9167359e-9688-41e4-ae83-b41424807596}, !- Space Name
  Outdoors,                               !- Outside Boundary Condition
  ,                                       !- Outside Boundary Condition Object
  SunExposed,                             !- Sun Exposure
  WindExposed,                            !- Wind Exposure
  ,                                       !- View Factor to Ground
  ,                                       !- Number of Vertices
  11.581835, 7.619628, 3.047851,          !- X,Y,Z Vertex 1 {m}
  11.581835, 7.619628, 0,                 !- X,Y,Z Vertex 2 {m}
  0, 7.619628, 0,                         !- X,Y,Z Vertex 3 {m}
  0, 7.619628, 3.047851;                  !- X,Y,Z Vertex 4 {m}

OS:Space,
  {7c013759-803b-46ae-9919-4e21adf7c78d}, !- Handle
  M SW Apartment,                         !- Name
  {c8981956-15db-48cd-9dc9-fdbfec63fa3c}, !- Space Type Name
  ,                                       !- Default Construction Set Name
  ,                                       !- Default Schedule Set Name
  0,                                      !- Direction of Relative North {deg}
  0,                                      !- X Origin {m}
  0,                                      !- Y Origin {m}
  3.04785135876431,                       !- Z Origin {m}
  {271f3401-76be-4edd-8369-7d5a808299e2}, !- Building Story Name
  {1b01b2a2-9948-459e-b56e-1558ad735b6a}; !- Thermal Zone Name

OS:Surface,
  {7cdc8448-6efd-41a0-8939-e3fddb97a0b0}, !- Handle
  t Roof NWA,                             !- Name
  RoofCeiling,                            !- Surface Type
  ,                                       !- Construction Name
  {0fe08715-548f-4b65-befe-40ea29ebf953}, !- Space Name
  Outdoors,                               !- Outside Boundary Condition
  ,                                       !- Outside Boundary Condition Object
  SunExposed,                             !- Sun Exposure
  WindExposed,                            !- Wind Exposure
  ,                                       !- View Factor to Ground
  ,                                       !- Number of Vertices
  11.581835, 0, 3.047851,                 !- X,Y,Z Vertex 1 {m}
  11.581835, 7.619628, 3.047851,          !- X,Y,Z Vertex 2 {m}
  0, 7.619628, 3.047851,                  !- X,Y,Z Vertex 3 {m}
  0, 0, 3.047851;                         !- X,Y,Z Vertex 4 {m}

OS:Space,
  {0fe08715-548f-4b65-befe-40ea29ebf953}, !- Handle
  T NW Apartment,                         !- Name
  {c8981956-15db-48cd-9dc9-fdbfec63fa3c}, !- Space Type Name
  ,                                       !- Default Construction Set Name
  ,                                       !- Default Schedule Set Name
  0,                                      !- Direction of Relative North {deg}
  0,                                      !- X Origin {m}
  9.29594664423115,                       !- Y Origin {m}
  9.14355407629293,                       !- Z Origin {m}
  {7a967551-5561-4b56-b05a-af0754ca7895}, !- Building Story Name
  {0b23e8fd-d0da-4fc0-ada9-a4b54de74762}; !- Thermal Zone Name

OS:Surface,
  {238b064b-51ef-4a46-9119-1d36c89acc33}, !- Handle
  m Ceiling C,                            !- Name
  RoofCeiling,                            !- Surface Type
  {3fa7aef1-451d-4849-a087-91923c4f8c89}, !- Construction Name
  {fec56cd7-1bb5-4bb0-8e3b-dab87b5a2de0}, !- Space Name
  Adiabatic,                              !- Outside Boundary Condition
  ,                                       !- Outside Boundary Condition Object
  NoSun,                                  !- Sun Exposure
  NoWind,                                 !- Wind Exposure
  ,                                       !- View Factor to Ground
  ,                                       !- Number of Vertices
  46.327341, 0, 3.047851,                 !- X,Y,Z Vertex 1 {m}
  46.327341, 1.676318, 3.047851,          !- X,Y,Z Vertex 2 {m}
  0, 1.676318, 3.047851,                  !- X,Y,Z Vertex 3 {m}
  0, 0, 3.047851;                         !- X,Y,Z Vertex 4 {m}

OS:Space,
  {fec56cd7-1bb5-4bb0-8e3b-dab87b5a2de0}, !- Handle
  M Corridor,                             !- Name
  {ffd7adfe-4499-46ec-bfc5-f7315431281a}, !- Space Type Name
  ,                                       !- Default Construction Set Name
  ,                                       !- Default Schedule Set Name
  ,                                       !- Direction of Relative North {deg}
  0,                                      !- X Origin {m}
  7.61962839691078,                       !- Y Origin {m}
  3.04785135876431,                       !- Z Origin {m}
  {271f3401-76be-4edd-8369-7d5a808299e2}, !- Building Story Name
  {fedeee8f-c965-44d4-9baa-8cc690345e48}; !- Thermal Zone Name

OS:Surface,
  {15f3d534-12ce-4c22-accb-4696f6173031}, !- Handle
  g SWall S1A,                            !- Name
  Wall,                                   !- Surface Type
  ,                                       !- Construction Name
  {3f1c5090-169e-4dca-b8f2-31c064cffb7d}, !- Space Name
  Outdoors,                               !- Outside Boundary Condition
  ,                                       !- Outside Boundary Condition Object
  SunExposed,                             !- Sun Exposure
  WindExposed,                            !- Wind Exposure
  ,                                       !- View Factor to Ground
  ,                                       !- Number of Vertices
  0, 0, 3.047851,                         !- X,Y,Z Vertex 1 {m}
  0, 0, 0,                                !- X,Y,Z Vertex 2 {m}
  11.581835, 0, 0,                        !- X,Y,Z Vertex 3 {m}
  11.581835, 0, 3.047851;                 !- X,Y,Z Vertex 4 {m}

OS:Space,
  {3f1c5090-169e-4dca-b8f2-31c064cffb7d}, !- Handle
  G S1 Apartment,                         !- Name
  {c8981956-15db-48cd-9dc9-fdbfec63fa3c}, !- Space Type Name
  ,                                       !- Default Construction Set Name
  ,                                       !- Default Schedule Set Name
  0,                                      !- Direction of Relative North {deg}
  11.5818351633044,                       !- X Origin {m}
  0,                                      !- Y Origin {m}
  0,                                      !- Z Origin {m}
  {adca533c-0468-407c-b890-d518ccf74735}, !- Building Story Name
  {1356eb97-4822-4603-9a93-ab5c3485fc7f}; !- Thermal Zone Name

OS:Surface,
  {b46169b5-2ad6-4c06-9301-0d3a61fe20b7}, !- Handle
  g EIWALL S1A,                           !- Name
  Wall,                                   !- Surface Type
  ,                                       !- Construction Name
  {3f1c5090-169e-4dca-b8f2-31c064cffb7d}, !- Space Name
  Surface,                                !- Outside Boundary Condition
  {c3a2ba44-30e4-47ad-b199-5a45f4cd0a96}, !- Outside Boundary Condition Object
  NoSun,                                  !- Sun Exposure
  NoWind,                                 !- Wind Exposure
  ,                                       !- View Factor to Ground
  ,                                       !- Number of Vertices
  11.581835, 0, 3.047851,                 !- X,Y,Z Vertex 1 {m}
  11.581835, 0, 0,                        !- X,Y,Z Vertex 2 {m}
  11.581835, 7.619628, 0,                 !- X,Y,Z Vertex 3 {m}
  11.581835, 7.619628, 3.047851;          !- X,Y,Z Vertex 4 {m}

OS:Space,
  {695f347d-e36c-4348-b06b-48f78bb2529b}, !- Handle
  G S2 Apartment,                         !- Name
  {c8981956-15db-48cd-9dc9-fdbfec63fa3c}, !- Space Type Name
  ,                                       !- Default Construction Set Name
  ,                                       !- Default Schedule Set Name
  0,                                      !- Direction of Relative North {deg}
  23.1636703266088,                       !- X Origin {m}
  0,                                      !- Y Origin {m}
  0,                                      !- Z Origin {m}
  {adca533c-0468-407c-b890-d518ccf74735}, !- Building Story Name
  {b4b45eee-5b67-45bc-901e-3a2986785773}; !- Thermal Zone Name

OS:Surface,
  {c3a2ba44-30e4-47ad-b199-5a45f4cd0a96}, !- Handle
  g EIWALL S1A Reversed,                  !- Name
  Wall,                                   !- Surface Type
  ,                                       !- Construction Name
  {695f347d-e36c-4348-b06b-48f78bb2529b}, !- Space Name
  Surface,                                !- Outside Boundary Condition
  {b46169b5-2ad6-4c06-9301-0d3a61fe20b7}, !- Outside Boundary Condition Object
  NoSun,                                  !- Sun Exposure
  NoWind,                                 !- Wind Exposure
  ,                                       !- View Factor to Ground
  ,                                       !- Number of Vertices
  -1.63304399336539e-07, 7.619628, 3.047851, !- X,Y,Z Vertex 1 {m}
  -1.63304399336539e-07, 7.619628, 0,     !- X,Y,Z Vertex 2 {m}
  -1.63304399336539e-07, 0, 0,            !- X,Y,Z Vertex 3 {m}
  -1.63304399336539e-07, 0, 3.047851;     !- X,Y,Z Vertex 4 {m}

OS:Surface,
  {14098aef-319d-416c-a469-3b909122a632}, !- Handle
  t GFloor N2A,                           !- Name
  Floor,                                  !- Surface Type
  {3fa7aef1-451d-4849-a087-91923c4f8c89}, !- Construction Name
  {9167359e-9688-41e4-ae83-b41424807596}, !- Space Name
  Adiabatic,                              !- Outside Boundary Condition
  ,                                       !- Outside Boundary Condition Object
  NoSun,                                  !- Sun Exposure
  NoWind,                                 !- Wind Exposure
  ,                                       !- View Factor to Ground
  ,                                       !- Number of Vertices
  11.581835, 7.619628, 0,                 !- X,Y,Z Vertex 1 {m}
  11.581835, 0, 0,                        !- X,Y,Z Vertex 2 {m}
  0, 0, 0,                                !- X,Y,Z Vertex 3 {m}
  0, 7.619628, 0;                         !- X,Y,Z Vertex 4 {m}

OS:Surface,
  {d70594d1-39e9-4527-baca-7be02e206c76}, !- Handle
  m NIWall SWA,                           !- Name
  Wall,                                   !- Surface Type
  ,                                       !- Construction Name
  {7c013759-803b-46ae-9919-4e21adf7c78d}, !- Space Name
  Surface,                                !- Outside Boundary Condition
  {f025dc15-ffd2-401c-a986-d4284339a97c}, !- Outside Boundary Condition Object
  NoSun,                                  !- Sun Exposure
  NoWind,                                 !- Wind Exposure
  ,                                       !- View Factor to Ground
  ,                                       !- Number of Vertices
  11.581835, 7.619628, 3.047851,          !- X,Y,Z Vertex 1 {m}
  11.581835, 7.619628, 0,                 !- X,Y,Z Vertex 2 {m}
  0, 7.619628, 0,                         !- X,Y,Z Vertex 3 {m}
  0, 7.619628, 3.047851;                  !- X,Y,Z Vertex 4 {m}

OS:Surface,
  {f025dc15-ffd2-401c-a986-d4284339a97c}, !- Handle
  m NIWall SWA Reversed,                  !- Name
  Wall,                                   !- Surface Type
  ,                                       !- Construction Name
  {fec56cd7-1bb5-4bb0-8e3b-dab87b5a2de0}, !- Space Name
  Surface,                                !- Outside Boundary Condition
  {d70594d1-39e9-4527-baca-7be02e206c76}, !- Outside Boundary Condition Object
  NoSun,                                  !- Sun Exposure
  NoWind,                                 !- Wind Exposure
  ,                                       !- View Factor to Ground
  ,                                       !- Number of Vertices
  0, 0, 3.047851,                         !- X,Y,Z Vertex 1 {m}
  0, 0, 0,                                !- X,Y,Z Vertex 2 {m}
  11.5818351633044, -3.9691078068671e-07, 0, !- X,Y,Z Vertex 3 {m}
  11.5818351633044, -3.9691078068671e-07, 3.047851; !- X,Y,Z Vertex 4 {m}

OS:Surface,
  {e339bfd6-0b62-4f74-861b-a1bc50f642b6}, !- Handle
  m Ceilin NEA,                           !- Name
  RoofCeiling,                            !- Surface Type
  {3fa7aef1-451d-4849-a087-91923c4f8c89}, !- Construction Name
  {0038fd5f-f228-4b0a-a724-e0084dd5bbd8}, !- Space Name
  Adiabatic,                              !- Outside Boundary Condition
  ,                                       !- Outside Boundary Condition Object
  NoSun,                                  !- Sun Exposure
  NoWind,                                 !- Wind Exposure
  ,                                       !- View Factor to Ground
  ,                                       !- Number of Vertices
  11.581835, 0, 3.047851,                 !- X,Y,Z Vertex 1 {m}
  11.581835, 7.619628, 3.047851,          !- X,Y,Z Vertex 2 {m}
  0, 7.619628, 3.047851,                  !- X,Y,Z Vertex 3 {m}
  0, 0, 3.047851;                         !- X,Y,Z Vertex 4 {m}

OS:Space,
  {0038fd5f-f228-4b0a-a724-e0084dd5bbd8}, !- Handle
  M NE Apartment,                         !- Name
  {c8981956-15db-48cd-9dc9-fdbfec63fa3c}, !- Space Type Name
  ,                                       !- Default Construction Set Name
  ,                                       !- Default Schedule Set Name
  0,                                      !- Direction of Relative North {deg}
  34.7455054899131,                       !- X Origin {m}
  9.29594664423115,                       !- Y Origin {m}
  3.04785135876431,                       !- Z Origin {m}
  {271f3401-76be-4edd-8369-7d5a808299e2}, !- Building Story Name
  {b0d474d9-b2ba-4a37-9f45-2e0f7cda7c74}; !- Thermal Zone Name

OS:Surface,
  {172d355a-f304-4226-a550-f61d503a0109}, !- Handle
  t GFloor NEA,                           !- Name
  Floor,                                  !- Surface Type
  {3fa7aef1-451d-4849-a087-91923c4f8c89}, !- Construction Name
  {d94f0b48-364b-4bd9-83bf-e9b13823aa40}, !- Space Name
  Adiabatic,                              !- Outside Boundary Condition
  ,                                       !- Outside Boundary Condition Object
  NoSun,                                  !- Sun Exposure
  NoWind,                                 !- Wind Exposure
  ,                                       !- View Factor to Ground
  ,                                       !- Number of Vertices
  11.581835, 7.619628, 0,                 !- X,Y,Z Vertex 1 {m}
  11.581835, 0, 0,                        !- X,Y,Z Vertex 2 {m}
  0, 0, 0,                                !- X,Y,Z Vertex 3 {m}
  0, 7.619628, 0;                         !- X,Y,Z Vertex 4 {m}

OS:Space,
  {d94f0b48-364b-4bd9-83bf-e9b13823aa40}, !- Handle
  T NE Apartment,                         !- Name
  {c8981956-15db-48cd-9dc9-fdbfec63fa3c}, !- Space Type Name
  ,                                       !- Default Construction Set Name
  ,                                       !- Default Schedule Set Name
  0,                                      !- Direction of Relative North {deg}
  34.7455054899131,                       !- X Origin {m}
  9.29594664423115,                       !- Y Origin {m}
  9.14355407629293,                       !- Z Origin {m}
  {7a967551-5561-4b56-b05a-af0754ca7895}, !- Building Story Name
  {7733e0e5-20d1-4f9b-8d09-cb50364417ab}; !- Thermal Zone Name

OS:Space,
  {2959e27c-b725-4429-b1eb-770aad7a063b}, !- Handle
  G NW Apartment,                         !- Name
  {c8981956-15db-48cd-9dc9-fdbfec63fa3c}, !- Space Type Name
  ,                                       !- Default Construction Set Name
  ,                                       !- Default Schedule Set Name
  0,                                      !- Direction of Relative North {deg}
  0,                                      !- X Origin {m}
  9.29594664423115,                       !- Y Origin {m}
  0,                                      !- Z Origin {m}
  {adca533c-0468-407c-b890-d518ccf74735}, !- Building Story Name
  {5f12663c-a68b-4500-94ff-03291a84a71e}; !- Thermal Zone Name

OS:Space,
  {5b74560d-d6b6-436a-86c2-4d0bd4939d9e}, !- Handle
  T S1 Apartment,                         !- Name
  {c8981956-15db-48cd-9dc9-fdbfec63fa3c}, !- Space Type Name
  ,                                       !- Default Construction Set Name
  ,                                       !- Default Schedule Set Name
  0,                                      !- Direction of Relative North {deg}
  11.5818351633044,                       !- X Origin {m}
  0,                                      !- Y Origin {m}
  9.14355407629293,                       !- Z Origin {m}
  {7a967551-5561-4b56-b05a-af0754ca7895}, !- Building Story Name
  {e3893a85-a205-4511-a8a0-b2b3c31e349c}; !- Thermal Zone Name

OS:Space,
  {b97f9e56-e331-4b8c-aa4d-ad782e7aa50a}, !- Handle
  M N1 Apartment,                         !- Name
  {c8981956-15db-48cd-9dc9-fdbfec63fa3c}, !- Space Type Name
  ,                                       !- Default Construction Set Name
  ,                                       !- Default Schedule Set Name
  0,                                      !- Direction of Relative North {deg}
  11.5818351633044,                       !- X Origin {m}
  9.29594664423115,                       !- Y Origin {m}
  3.04785135876431,                       !- Z Origin {m}
  {271f3401-76be-4edd-8369-7d5a808299e2}, !- Building Story Name
  {b94af4db-08a1-4d77-97a9-4fa4c99b5c46}; !- Thermal Zone Name

OS:Space,
  {859bc88c-c416-4bc3-8137-dd5ebef99bba}, !- Handle
  Office,                                 !- Name
  {d878049e-9383-4c78-b237-b3106f3ac989}, !- Space Type Name
  ,                                       !- Default Construction Set Name