
OS:Version,
  {7f3b998d-d1c6-47ca-a219-866baf769f5c}, !- Handle
  3.2.1;                                  !- Version Identifier

OS:ScheduleTypeLimits,
  {fc24a98d-3913-423b-a5a3-c9eb2ae95c03}, !- Handle
  Always On Discrete Limits,              !- Name
  0,                                      !- Lower Limit Value
  1,                                      !- Upper Limit Value
  Discrete,                               !- Numeric Type
  Availability;                           !- Unit Type

OS:Site,
  {6c5ce5cc-dd38-4994-9d2b-3c53e7d62738}, !- Handle
  SAINT JOHN A_NB_CAN,                    !- Name
  45.32,                                  !- Latitude {deg}
  -65.89,                                 !- Longitude {deg}
  -4,                                     !- Time Zone {hr}
  108.8,                                  !- Elevation {m}
  City;                                   !- Terrain

OS:SimulationControl,
  {4a5c5234-564e-4da6-b9f2-aebcf5c6119f}, !- Handle
  Yes,                                    !- Do Zone Sizing Calculation
  Yes,                                    !- Do System Sizing Calculation
  No,                                     !- Do Plant Sizing Calculation
  No,                                     !- Run Simulation for Sizing Periods
  Yes,                                    !- Run Simulation for Weather File Run Periods
  0.04,                                   !- Loads Convergence Tolerance Value {W}
  0.4,                                    !- Temperature Convergence Tolerance Value {deltaC}
  FullExterior,                           !- Solar Distribution
  25,                                     !- Maximum Number of Warmup Days
  6,                                      !- Minimum Number of Warmup Days
  No,                                     !- Do HVAC Sizing Simulation for Sizing Periods
  1;                                      !- Maximum Number of HVAC Sizing Simulation Passes

OS:Space,
  {c3b16dd2-0b7e-41f9-9554-37b64a961382}, !- Handle
  T SE Apartment,                         !- Name
  {c8981956-15db-48cd-9dc9-fdbfec63fa3c}, !- Space Type Name
  ,                                       !- Default Construction Set Name
  ,                                       !- Default Schedule Set Name
  0,                                      !- Direction of Relative North {deg}
  34.7455054899131,                       !- X Origin {m}
  0,                                      !- Y Origin {m}
  9.14355407629293,                       !- Z Origin {m}
  {7a967551-5561-4b56-b05a-af0754ca7895}, !- Building Story Name
  {5210b09d-c0f2-46f6-bd2c-f603eabbb502}; !- Thermal Zone Name

OS:Space,
  {ab4b5dbb-3b66-43ba-b6e3-9e7c2c0d8d03}, !- Handle
  G Corridor,                             !- Name
  {ffd7adfe-4499-46ec-bfc5-f7315431281a}, !- Space Type Name
  ,                                       !- Default Construction Set Name
  ,                                       !- Default Schedule Set Name
  0,                                      !- Direction of Relative North {deg}
  0,                                      !- X Origin {m}
  7.61962839691078,                       !- Y Origin {m}
  0,                                      !- Z Origin {m}
  {adca533c-0468-407c-b890-d518ccf74735}, !- Building Story Name
  {305abeac-6735-43e2-a872-9d256e490cff}; !- Thermal Zone Name

OS:Surface,
  {c1f9405a-3bf7-485c-850c-d955771dc9f2}, !- Handle
  t WWall SWA,                            !- Name
  Wall,                                   !- Surface Type
  ,                                       !- Construction Name
  {66195dd7-4158-483d-b874-3388a680b571}, !- Space Name
  Outdoors,                               !- Outside Boundary Condition
  ,                                       !- Outside Boundary Condition Object
  SunExposed,                             !- Sun Exposure
  WindExposed,                            !- Wind Exposure
  ,                                       !- View Factor to Ground
  ,                                       !- Number of Vertices
  0, 7.619628, 3.047851,                  !- X,Y,Z Vertex 1 {m}
  0, 7.619628, 0,                         !- X,Y,Z Vertex 2 {m}
  0, 0, 0,                                !- X,Y,Z Vertex 3 {m}
  0, 0, 3.047851;                         !- X,Y,Z Vertex 4 {m}

OS:Space,
  {66195dd7-4158-483d-b874-3388a680b571}, !- Handle
  T SW Apartment,                         !- Name
  {c8981956-15db-48cd-9dc9-fdbfec63fa3c}, !- Space Type Name
  ,                                       !- Default Construction Set Name
  ,                                       !- Default Schedule Set Name
  0,                                      !- Direction of Relative North {deg}
  0,                                      !- X Origin {m}
  0,                                      !- Y Origin {m}
  9.14355407629293,                       !- Z Origin {m}
  {7a967551-5561-4b56-b05a-af0754ca7895}, !- Building Story Name
  {a634dfc2-486b-48f1-a9b2-b7de557a4127}; !- Thermal Zone Name

OS:Surface,
  {e93a1e7c-48fb-4ed9-ac7e-05134be3a756}, !- Handle
  m EIWALL S2A,                           !- Name
  Wall,                                   !- Surface Type
  ,                                       !- Construction Name
  {6912ab22-717f-4315-a8ff-9c62dd3bb665}, !- Space Name
  Surface,                                !- Outside Boundary Condition
  {eb40ffd2-f2df-4f54-8cf1-a3497185a43a}, !- Outside Boundary Condition Object
  NoSun,                                  !- Sun Exposure
  NoWind,                                 !- Wind Exposure
  ,                                       !- View Factor to Ground
  ,                                       !- Number of Vertices
  11.581835, 0, 3.047851,                 !- X,Y,Z Vertex 1 {m}
  11.581835, 0, 0,                        !- X,Y,Z Vertex 2 {m}
  11.581835, 7.619628, 0,                 !- X,Y,Z Vertex 3 {m}
  11.581835, 7.619628, 3.047851;          !- X,Y,Z Vertex 4 {m}

OS:Space,
  {6912ab22-717f-4315-a8ff-9c62dd3bb665}, !- Handle
  M S2 Apartment,                         !- Name
  {c8981956-15db-48cd-9dc9-fdbfec63fa3c}, !- Space Type Name
  ,                                       !- Default Construction Set Name
  ,                                       !- Default Schedule Set Name
  0,                                      !- Direction of Relative North {deg}
  23.1636703266088,                       !- X Origin {m}
  0,                                      !- Y Origin {m}
  3.04785135876431,                       !- Z Origin {m}
  {271f3401-76be-4edd-8369-7d5a808299e2}, !- Building Story Name
  {661d17ef-00a5-4751-8fb0-e685457807a1}; !- Thermal Zone Name

OS:Space,
  {522c5e6f-296d-41b5-be13-5d90fe955163}, !- Handle
  M SE Apartment,                         !- Name
  {c8981956-15db-48cd-9dc9-fdbfec63fa3c}, !- Space Type Name
  ,                                       !- Default Construction Set Name
  ,                                       !- Default Schedule Set Name
  0,                                      !- Direction of Relative North {deg}
  34.7455054899131,                       !- X Origin {m}
  0,                                      !- Y Origin {m}
  3.04785135876431,                       !- Z Origin {m}
  {271f3401-76be-4edd-8369-7d5a808299e2}, !- Building Story Name
  {bc9fb8ea-e08e-4346-bd84-8637c66885bf}; !- Thermal Zone Name

OS:Surface,
  {eb40ffd2-f2df-4f54-8cf1-a3497185a43a}, !- Handle
  m EIWALL S2A Reversed,                  !- Name
  Wall,                                   !- Surface Type
  ,                                       !- Construction Name
  {522c5e6f-296d-41b5-be13-5d90fe955163}, !- Space Name
  Surface,                                !- Outside Boundary Condition
  {e93a1e7c-48fb-4ed9-ac7e-05134be3a756}, !- Outside Boundary Condition Object
  NoSun,                                  !- Sun Exposure
  NoWind,                                 !- Wind Exposure
  ,                                       !- View Factor to Ground
  ,                                       !- Number of Vertices
  -1.63304301636913e-07, 7.619628, 3.047851, !- X,Y,Z Vertex 1 {m}
  -1.63304301636913e-07, 7.619628, 0,     !- X,Y,Z Vertex 2 {m}
  0, 0, 0,                                !- X,Y,Z Vertex 3 {m}
  0, 0, 3.047851;                         !- X,Y,Z Vertex 4 {m}

OS:Surface,
  {fdb38349-a07f-4613-871c-2a0d97c95f4f}, !- Handle
  t SIWall N1A,                           !- Name
  Wall,                                   !- Surface Type
  ,                                       !- Construction Name
  {22d8b173-d774-48ce-9aac-7d6a7840f33f}, !- Space Name
  Surface,                                !- Outside Boundary Condition
  {8f8d4456-97e9-4b0f-ab22-f64fe1c8d8f2}, !- Outside Boundary Condition Object
  NoSun,                                  !- Sun Exposure
  NoWind,                                 !- Wind Exposure
  ,                                       !- View Factor to Ground
  ,                                       !- Number of Vertices
  0, 0, 3.047851,                         !- X,Y,Z Vertex 1 {m}
  0, 0, 0,                                !- X,Y,Z Vertex 2 {m}
  11.581835, 0, 0,                        !- X,Y,Z Vertex 3 {m}
  11.581835, 0, 3.047851;                 !- X,Y,Z Vertex 4 {m}

OS:Space,
  {22d8b173-d774-48ce-9aac-7d6a7840f33f}, !- Handle
  T N1 Apartment,                         !- Name
  {c8981956-15db-48cd-9dc9-fdbfec63fa3c}, !- Space Type Name
  ,                                       !- Default Construction Set Name
  ,                                       !- Default Schedule Set Name
  0,                                      !- Direction of Relative North {deg}
  11.5818351633044,                       !- X Origin {m}
  9.29594664423115,                       !- Y Origin {m}
  9.14355407629293,                       !- Z Origin {m}
  {7a967551-5561-4b56-b05a-af0754ca7895}, !- Building Story Name
  {5265a536-3c42-46aa-b9b9-216d7f829ee2}; !- Thermal Zone Name

OS:Space,
  {320a911a-e18e-4155-bcf9-b9823aa5a2c5}, !- Handle
  T Corridor,                             !- Name
  {ffd7adfe-4499-46ec-bfc5-f7315431281a}, !- Space Type Name
  ,                                       !- Default Construction Set Name
  ,                                       !- Default Schedule Set Name
  ,                                       !- Direction of Relative North {deg}
  0,                                      !- X Origin {m}
  7.61962839691078,                       !- Y Origin {m}
  9.14355407629293,                       !- Z Origin {m}
  {7a967551-5561-4b56-b05a-af0754ca7895}, !- Building Story Name
  {cd6e6418-81e8-4f5f-8bee-7882bec5f973}; !- Thermal Zone Name

OS:Surface,
  {8f8d4456-97e9-4b0f-ab22-f64fe1c8d8f2}, !- Handle
  t SIWall N1A Reversed,                  !- Name
  Wall,                                   !- Surface Type
  ,                                       !- Construction Name
  {320a911a-e18e-4155-bcf9-b9823aa5a2c5}, !- Space Name
  Surface,                                !- Outside Boundary Condition
  {fdb38349-a07f-4613-871c-2a0d97c95f4f}, !- Outside Boundary Condition Object
  NoSun,                                  !- Sun Exposure
  NoWind,                                 !- Wind Exposure
  ,                                       !- View Factor to Ground
  ,                                       !- Number of Vertices
  23.1636701633044, 1.67631824732037, 3.047851, !- X,Y,Z Vertex 1 {m}
  23.1636701633044, 1.67631824732037, 0,  !- X,Y,Z Vertex 2 {m}
  11.5818351633044, 1.67631824732037, 0,  !- X,Y,Z Vertex 3 {m}
  11.5818351633044, 1.67631824732037, 3.047851; !- X,Y,Z Vertex 4 {m}

OS:Space,
  {9167359e-9688-41e4-ae83-b41424807596}, !- Handle
  T N2 Apartment,                         !- Name
  {c8981956-15db-48cd-9dc9-fdbfec63fa3c}, !- Space Type Name
  ,                                       !- Default Construction Set Name
  ,                                       !- Default Schedule Set Name
  0,                                      !- Direction of Relative North {deg}
  23.1636703266088,                       !- X Origin {m}
  9.29594664423115,                       !- Y Origin {m}
  9.14355407629293,                       !- Z Origin {m}
  {7a967551-5561-4b56-b05a-af0754ca7895}, !- Building Story Name
  {7b0220cd-151c-4935-ac56-271a1de2073d}; !- Thermal Zone Name

OS:Surface,
  {0464b6fc-0025-4ea5-80cb-899a8d9af70c}, !- Handle
  t NWall N2A,                            !- Name
  Wall,                                   !- Surface Type
  ,                                       !- Construction Name
  {9167359e-9688-41e4-ae83-b41424807596}, !- Space Name
  Outdoors,                               !- Outside Boundary Condition
  ,                                       !- Outside Boundary Condition Object
  SunExposed,                             !- Sun Exposure
  WindExposed,                            !- Wind Exposure
  ,                                       !- View Factor to Ground
  ,                                       !- Number of Vertices
  11.581835, 7.619628, 3.047851,          !- X,Y,Z Vertex 1 {m}
  11.581835, 7.619628, 0,                 !- X,Y,Z Vertex 2 {m}
  0, 7.619628, 0,                         !- X,Y,Z Vertex 3 {m}
  0, 7.619628, 3.047851;                  !- X,Y,Z Vertex 4 {m}

OS:Space,
  {7c013759-803b-46ae-9919-4e21adf7c78d}, !- Handle
  M SW Apartment,                         !- Name
  {c8981956-15db-48cd-9dc9-fdbfec63fa3c}, !- Space Type Name
  ,                                       !- Default Construction Set Name
  ,                                       !- Default Schedule Set Name
  0,                                      !- Direction of Relative North {deg}
  0,                                      !- X Origin {m}
  0,                                      !- Y Origin {m}
  3.04785135876431,                       !- Z Origin {m}
  {271f3401-76be-4edd-8369-7d5a808299e2}, !- Building Story Name
  {5ba90e84-8214-402a-b3a9-7f500da83c84}; !- Thermal Zone Name

OS:Surface,
  {7cdc8448-6efd-41a0-8939-e3fddb97a0b0}, !- Handle
  t Roof NWA,                             !- Name
  RoofCeiling,                            !- Surface Type
  ,                                       !- Construction Name
  {0fe08715-548f-4b65-befe-40ea29ebf953}, !- Space Name
  Outdoors,                               !- Outside Boundary Condition
  ,                                       !- Outside Boundary Condition Object
  SunExposed,                             !- Sun Exposure
  WindExposed,                            !- Wind Exposure
  ,                                       !- View Factor to Ground
  ,                                       !- Number of Vertices
  11.581835, 0, 3.047851,                 !- X,Y,Z Vertex 1 {m}
  11.581835, 7.619628, 3.047851,          !- X,Y,Z Vertex 2 {m}
  0, 7.619628, 3.047851,                  !- X,Y,Z Vertex 3 {m}
  0, 0, 3.047851;                         !- X,Y,Z Vertex 4 {m}

OS:Space,
  {0fe08715-548f-4b65-befe-40ea29ebf953}, !- Handle
  T NW Apartment,                         !- Name
  {c8981956-15db-48cd-9dc9-fdbfec63fa3c}, !- Space Type Name
  ,                                       !- Default Construction Set Name
  ,                                       !- Default Schedule Set Name
  0,                                      !- Direction of Relative North {deg}
  0,                                      !- X Origin {m}
  9.29594664423115,                       !- Y Origin {m}
  9.14355407629293,                       !- Z Origin {m}
  {7a967551-5561-4b56-b05a-af0754ca7895}, !- Building Story Name
  {28dd1772-920c-4fc9-8a6e-5e9fc48cb2da}; !- Thermal Zone Name

OS:Surface,
  {238b064b-51ef-4a46-9119-1d36c89acc33}, !- Handle
  m Ceiling C,                            !- Name
  RoofCeiling,                            !- Surface Type
  {bd3276a5-f184-49ed-8344-a01635453031}, !- Construction Name
  {fec56cd7-1bb5-4bb0-8e3b-dab87b5a2de0}, !- Space Name
  Adiabatic,                              !- Outside Boundary Condition
  ,                                       !- Outside Boundary Condition Object
  NoSun,                                  !- Sun Exposure
  NoWind,                                 !- Wind Exposure
  ,                                       !- View Factor to Ground
  ,                                       !- Number of Vertices
  46.327341, 0, 3.047851,                 !- X,Y,Z Vertex 1 {m}
  46.327341, 1.676318, 3.047851,          !- X,Y,Z Vertex 2 {m}
  0, 1.676318, 3.047851,                  !- X,Y,Z Vertex 3 {m}
  0, 0, 3.047851;                         !- X,Y,Z Vertex 4 {m}

OS:Space,
  {fec56cd7-1bb5-4bb0-8e3b-dab87b5a2de0}, !- Handle
  M Corridor,                             !- Name
  {ffd7adfe-4499-46ec-bfc5-f7315431281a}, !- Space Type Name
  ,                                       !- Default Construction Set Name
  ,                                       !- Default Schedule Set Name
  ,                                       !- Direction of Relative North {deg}
  0,                                      !- X Origin {m}
  7.61962839691078,                       !- Y Origin {m}
  3.04785135876431,                       !- Z Origin {m}
  {271f3401-76be-4edd-8369-7d5a808299e2}, !- Building Story Name
  {f1aab3e7-7b90-4eca-92a9-3cdd9457953a}; !- Thermal Zone Name

OS:Surface,
  {15f3d534-12ce-4c22-accb-4696f6173031}, !- Handle
  g SWall S1A,                            !- Name
  Wall,                                   !- Surface Type
  ,                                       !- Construction Name
  {3f1c5090-169e-4dca-b8f2-31c064cffb7d}, !- Space Name
  Outdoors,                               !- Outside Boundary Condition
  ,                                       !- Outside Boundary Condition Object
  SunExposed,                             !- Sun Exposure
  WindExposed,                            !- Wind Exposure
  ,                                       !- View Factor to Ground
  ,                                       !- Number of Vertices
  0, 0, 3.047851,                         !- X,Y,Z Vertex 1 {m}
  0, 0, 0,                                !- X,Y,Z Vertex 2 {m}
  11.581835, 0, 0,                        !- X,Y,Z Vertex 3 {m}
  11.581835, 0, 3.047851;                 !- X,Y,Z Vertex 4 {m}

OS:Space,
  {3f1c5090-169e-4dca-b8f2-31c064cffb7d}, !- Handle
  G S1 Apartment,                         !- Name
  {c8981956-15db-48cd-9dc9-fdbfec63fa3c}, !- Space Type Name
  ,                                       !- Default Construction Set Name
  ,                                       !- Default Schedule Set Name
  0,                                      !- Direction of Relative North {deg}
  11.5818351633044,                       !- X Origin {m}
  0,                                      !- Y Origin {m}
  0,                                      !- Z Origin {m}
  {adca533c-0468-407c-b890-d518ccf74735}, !- Building Story Name
  {9d6c0f6f-feeb-4943-aa67-baa391a61e26}; !- Thermal Zone Name

OS:Surface,
  {b46169b5-2ad6-4c06-9301-0d3a61fe20b7}, !- Handle
  g EIWALL S1A,                           !- Name
  Wall,                                   !- Surface Type
  ,                                       !- Construction Name
  {3f1c5090-169e-4dca-b8f2-31c064cffb7d}, !- Space Name
  Surface,                                !- Outside Boundary Condition
  {c3a2ba44-30e4-47ad-b199-5a45f4cd0a96}, !- Outside Boundary Condition Object
  NoSun,                                  !- Sun Exposure
  NoWind,                                 !- Wind Exposure
  ,                                       !- View Factor to Ground
  ,                                       !- Number of Vertices
  11.581835, 0, 3.047851,                 !- X,Y,Z Vertex 1 {m}
  11.581835, 0, 0,                        !- X,Y,Z Vertex 2 {m}
  11.581835, 7.619628, 0,                 !- X,Y,Z Vertex 3 {m}
  11.581835, 7.619628, 3.047851;          !- X,Y,Z Vertex 4 {m}

OS:Space,
  {695f347d-e36c-4348-b06b-48f78bb2529b}, !- Handle
  G S2 Apartment,                         !- Name
  {c8981956-15db-48cd-9dc9-fdbfec63fa3c}, !- Space Type Name
  ,                                       !- Default Construction Set Name
  ,                                       !- Default Schedule Set Name
  0,                                      !- Direction of Relative North {deg}
  23.1636703266088,                       !- X Origin {m}
  0,                                      !- Y Origin {m}
  0,                                      !- Z Origin {m}
  {adca533c-0468-407c-b890-d518ccf74735}, !- Building Story Name
  {398c337b-401c-46bf-8dd0-618b7ee322e7}; !- Thermal Zone Name

OS:Surface,
  {c3a2ba44-30e4-47ad-b199-5a45f4cd0a96}, !- Handle
  g EIWALL S1A Reversed,                  !- Name
  Wall,                                   !- Surface Type
  ,                                       !- Construction Name
  {695f347d-e36c-4348-b06b-48f78bb2529b}, !- Space Name
  Surface,                                !- Outside Boundary Condition
  {b46169b5-2ad6-4c06-9301-0d3a61fe20b7}, !- Outside Boundary Condition Object
  NoSun,                                  !- Sun Exposure
  NoWind,                                 !- Wind Exposure
  ,                                       !- View Factor to Ground
  ,                                       !- Number of Vertices
  -1.63304399336539e-07, 7.619628, 3.047851, !- X,Y,Z Vertex 1 {m}
  -1.63304399336539e-07, 7.619628, 0,     !- X,Y,Z Vertex 2 {m}
  -1.63304399336539e-07, 0, 0,            !- X,Y,Z Vertex 3 {m}
  -1.63304399336539e-07, 0, 3.047851;     !- X,Y,Z Vertex 4 {m}

OS:Surface,
  {14098aef-319d-416c-a469-3b909122a632}, !- Handle
  t GFloor N2A,                           !- Name
  Floor,                                  !- Surface Type
  {bd3276a5-f184-49ed-8344-a01635453031}, !- Construction Name
  {9167359e-9688-41e4-ae83-b41424807596}, !- Space Name
  Adiabatic,                              !- Outside Boundary Condition
  ,                                       !- Outside Boundary Condition Object
  NoSun,                                  !- Sun Exposure
  NoWind,                                 !- Wind Exposure
  ,                                       !- View Factor to Ground
  ,                                       !- Number of Vertices
  11.581835, 7.619628, 0,                 !- X,Y,Z Vertex 1 {m}
  11.581835, 0, 0,                        !- X,Y,Z Vertex 2 {m}
  0, 0, 0,                                !- X,Y,Z Vertex 3 {m}
  0, 7.619628, 0;                         !- X,Y,Z Vertex 4 {m}

OS:Surface,
  {d70594d1-39e9-4527-baca-7be02e206c76}, !- Handle
  m NIWall SWA,                           !- Name
  Wall,                                   !- Surface Type
  ,                                       !- Construction Name
  {7c013759-803b-46ae-9919-4e21adf7c78d}, !- Space Name
  Surface,                                !- Outside Boundary Condition
  {f025dc15-ffd2-401c-a986-d4284339a97c}, !- Outside Boundary Condition Object
  NoSun,                                  !- Sun Exposure
  NoWind,                                 !- Wind Exposure
  ,                                       !- View Factor to Ground
  ,                                       !- Number of Vertices
  11.581835, 7.619628, 3.047851,          !- X,Y,Z Vertex 1 {m}
  11.581835, 7.619628, 0,                 !- X,Y,Z Vertex 2 {m}
  0, 7.619628, 0,                         !- X,Y,Z Vertex 3 {m}
  0, 7.619628, 3.047851;                  !- X,Y,Z Vertex 4 {m}

OS:Surface,
  {f025dc15-ffd2-401c-a986-d4284339a97c}, !- Handle
  m NIWall SWA Reversed,                  !- Name
  Wall,                                   !- Surface Type
  ,                                       !- Construction Name
  {fec56cd7-1bb5-4bb0-8e3b-dab87b5a2de0}, !- Space Name
  Surface,                                !- Outside Boundary Condition
  {d70594d1-39e9-4527-baca-7be02e206c76}, !- Outside Boundary Condition Object
  NoSun,                                  !- Sun Exposure
  NoWind,                                 !- Wind Exposure
  ,                                       !- View Factor to Ground
  ,                                       !- Number of Vertices
  0, 0, 3.047851,                         !- X,Y,Z Vertex 1 {m}
  0, 0, 0,                                !- X,Y,Z Vertex 2 {m}
  11.5818351633044, -3.9691078068671e-07, 0, !- X,Y,Z Vertex 3 {m}
  11.5818351633044, -3.9691078068671e-07, 3.047851; !- X,Y,Z Vertex 4 {m}

OS:Surface,
  {e339bfd6-0b62-4f74-861b-a1bc50f642b6}, !- Handle
  m Ceilin NEA,                           !- Name
  RoofCeiling,                            !- Surface Type
  {bd3276a5-f184-49ed-8344-a01635453031}, !- Construction Name
  {0038fd5f-f228-4b0a-a724-e0084dd5bbd8}, !- Space Name
  Adiabatic,                              !- Outside Boundary Condition
  ,                                       !- Outside Boundary Condition Object
  NoSun,                                  !- Sun Exposure
  NoWind,                                 !- Wind Exposure
  ,                                       !- View Factor to Ground
  ,                                       !- Number of Vertices
  11.581835, 0, 3.047851,                 !- X,Y,Z Vertex 1 {m}
  11.581835, 7.619628, 3.047851,          !- X,Y,Z Vertex 2 {m}
  0, 7.619628, 3.047851,                  !- X,Y,Z Vertex 3 {m}
  0, 0, 3.047851;                         !- X,Y,Z Vertex 4 {m}

OS:Space,
  {0038fd5f-f228-4b0a-a724-e0084dd5bbd8}, !- Handle
  M NE Apartment,                         !- Name
  {c8981956-15db-48cd-9dc9-fdbfec63fa3c}, !- Space Type Name
  ,                                       !- Default Construction Set Name
  ,                                       !- Default Schedule Set Name
  0,                                      !- Direction of Relative North {deg}
  34.7455054899131,                       !- X Origin {m}
  9.29594664423115,                       !- Y Origin {m}
  3.04785135876431,                       !- Z Origin {m}
  {271f3401-76be-4edd-8369-7d5a808299e2}, !- Building Story Name
  {0b20c6bf-f01c-4bc9-ac87-cfe12f8575e8}; !- Thermal Zone Name

OS:Surface,
  {172d355a-f304-4226-a550-f61d503a0109}, !- Handle
  t GFloor NEA,                           !- Name
  Floor,                                  !- Surface Type
  {bd3276a5-f184-49ed-8344-a01635453031}, !- Construction Name
  {d94f0b48-364b-4bd9-83bf-e9b13823aa40}, !- Space Name
  Adiabatic,                              !- Outside Boundary Condition
  ,                                       !- Outside Boundary Condition Object
  NoSun,                                  !- Sun Exposure
  NoWind,                                 !- Wind Exposure
  ,                                       !- View Factor to Ground
  ,                                       !- Number of Vertices
  11.581835, 7.619628, 0,                 !- X,Y,Z Vertex 1 {m}
  11.581835, 0, 0,                        !- X,Y,Z Vertex 2 {m}
  0, 0, 0,                                !- X,Y,Z Vertex 3 {m}
  0, 7.619628, 0;                         !- X,Y,Z Vertex 4 {m}

OS:Space,
  {d94f0b48-364b-4bd9-83bf-e9b13823aa40}, !- Handle
  T NE Apartment,                         !- Name
  {c8981956-15db-48cd-9dc9-fdbfec63fa3c}, !- Space Type Name
  ,                                       !- Default Construction Set Name
  ,                                       !- Default Schedule Set Name
  0,                                      !- Direction of Relative North {deg}
  34.7455054899131,                       !- X Origin {m}
  9.29594664423115,                       !- Y Origin {m}
  9.14355407629293,                       !- Z Origin {m}
  {7a967551-5561-4b56-b05a-af0754ca7895}, !- Building Story Name
  {b198d354-f639-4ba4-8f82-6739c8477e75}; !- Thermal Zone Name

OS:Space,
  {2959e27c-b725-4429-b1eb-770aad7a063b}, !- Handle
  G NW Apartment,                         !- Name
  {c8981956-15db-48cd-9dc9-fdbfec63fa3c}, !- Space Type Name
  ,                                       !- Default Construction Set Name
  ,                                       !- Default Schedule Set Name
  0,                                      !- Direction of Relative North {deg}
  0,                                      !- X Origin {m}
  9.29594664423115,                       !- Y Origin {m}
  0,                                      !- Z Origin {m}
  {adca533c-0468-407c-b890-d518ccf74735}, !- Building Story Name
  {26a4ac8d-c1ce-4f6e-9b00-be6eef9b902f}; !- Thermal Zone Name

OS:Space,
  {5b74560d-d6b6-436a-86c2-4d0bd4939d9e}, !- Handle
  T S1 Apartment,                         !- Name
  {c8981956-15db-48cd-9dc9-fdbfec63fa3c}, !- Space Type Name
  ,                                       !- Default Construction Set Name
  ,                                       !- Default Schedule Set Name
  0,                                      !- Direction of Relative North {deg}
  11.5818351633044,                       !- X Origin {m}
  0,                                      !- Y Origin {m}
  9.14355407629293,                       !- Z Origin {m}
  {7a967551-5561-4b56-b05a-af0754ca7895}, !- Building Story Name
  {a8637586-59db-4f0a-9e2e-4c2ec9a96152}; !- Thermal Zone Name

OS:Space,
  {b97f9e56-e331-4b8c-aa4d-ad782e7aa50a}, !- Handle
  M N1 Apartment,                         !- Name
  {c8981956-15db-48cd-9dc9-fdbfec63fa3c}, !- Space Type Name
  ,                                       !- Default Construction Set Name
  ,                                       !- Default Schedule Set Name
  0,                                      !- Direction of Relative North {deg}
  11.5818351633044,                       !- X Origin {m}
  9.29594664423115,                       !- Y Origin {m}
  3.04785135876431,                       !- Z Origin {m}
  {271f3401-76be-4edd-8369-7d5a808299e2}, !- Building Story Name
  {4c1e23cc-8279-42bb-80fb-7debe30ba4bf}; !- Thermal Zone Name

OS:Space,
  {859bc88c-c416-4bc3-8137-dd5ebef99bba}, !- Handle
  Office,                                 !- Name
  {d878049e-9383-4c78-b237-b3106f3ac989}, !- Space Type Name
  ,                                       !- Default Construction Set Name