
OS:Version,
  {d4fdd638-059c-4d4e-9f20-2e2a1bf25a85}, !- Handle
  3.2.1;                                  !- Version Identifier

OS:ScheduleTypeLimits,
  {cda9fe73-5bcf-4a32-8e33-6d2a2b6a1fc2}, !- Handle
  Always On Discrete Limits,              !- Name
  0,                                      !- Lower Limit Value
  1,                                      !- Upper Limit Value
  Discrete,                               !- Numeric Type
  Availability;                           !- Unit Type

OS:Site,
  {b24a8c8c-c603-4c71-9293-1675139ee819}, !- Handle
  Winnipeg Intl AP_MB_CAN,                !- Name
  49.91,                                  !- Latitude {deg}
  -97.24,                                 !- Longitude {deg}
  -6,                                     !- Time Zone {hr}
  238.7,                                  !- Elevation {m}
  Suburbs;                                !- Terrain

OS:SimulationControl,
  {b3838fe9-dd1f-424c-a8a9-73ac9fdc550d}, !- Handle
  Yes,                                    !- Do Zone Sizing Calculation
  Yes,                                    !- Do System Sizing Calculation
  Yes,                                    !- Do Plant Sizing Calculation
  No,                                     !- Run Simulation for Sizing Periods
  Yes,                                    !- Run Simulation for Weather File Run Periods
  0.04,                                   !- Loads Convergence Tolerance Value {W}
  0.4,                                    !- Temperature Convergence Tolerance Value {deltaC}
  FullExterior,                           !- Solar Distribution
  25,                                     !- Maximum Number of Warmup Days
  6,                                      !- Minimum Number of Warmup Days
  No,                                     !- Do HVAC Sizing Simulation for Sizing Periods
  1;                                      !- Maximum Number of HVAC Sizing Simulation Passes

OS:Surface,
  {9a7119fd-0f0e-4e33-9d27-40c522dd10a7}, !- Handle
  P_GuestRoom319_10204_0_10111,           !- Name
  Wall,                                   !- Surface Type
  ,                                       !- Construction Name
  {b348f0b3-7513-4945-aab8-392424f022d8}, !- Space Name
  Surface,                                !- Outside Boundary Condition
  {28589f15-8eea-41b6-aafd-f5de8680c100}, !- Outside Boundary Condition Object
  NoSun,                                  !- Sun Exposure
  NoWind,                                 !- Wind Exposure
  ,                                       !- View Factor to Ground
  ,                                       !- Number of Vertices
  28.69988442, 10.1078292198, 8.8392,     !- X,Y,Z Vertex 1 {m}
  28.69988442, 10.1078292198, 6.096,      !- X,Y,Z Vertex 2 {m}
  32.66228442, 10.1078292198, 6.096,      !- X,Y,Z Vertex 3 {m}
  32.66228442, 10.1078292198, 8.8392;     !- X,Y,Z Vertex 4 {m}

OS:Connection,
  {ba7f5790-e06c-47df-8c8e-ccf0762f0b5f}, !- Handle
  ,                                       !- Source Object
  11,                                     !- Outlet Port
  ,                                       !- Target Object
  2;                                      !- Inlet Port

OS:Space,
  {b348f0b3-7513-4945-aab8-392424f022d8}, !- Handle
  GuestRoom319,                           !- Name
  {5ca86fce-20c3-46c4-a378-d293b01c9aac}, !- Space Type Name
  ,                                       !- Default Construction Set Name
  ,                                       !- Default Schedule Set Name
  0,                                      !- Direction of Relative North {deg}
  0,                                      !- X Origin {m}
  0,                                      !- Y Origin {m}
  0,                                      !- Z Origin {m}
  {a0267c62-2b20-48a3-a3ac-400cdbdf753f}, !- Building Story Name
  {d45ce60d-0546-4c14-9c0f-d8712bd3e0fc}; !- Thermal Zone Name

OS:Connection,
  {c387cf8a-aa04-489b-814c-10fc2a2ea994}, !- Handle
  ,                                       !- Source Object
  11,                                     !- Outlet Port
  ,                                       !- Target Object
  2;                                      !- Inlet Port

OS:Space,
  {a202d60c-8fd9-423f-beff-6d304d4790c3}, !- Handle
  GuestRoom424,                           !- Name
  {5ca86fce-20c3-46c4-a378-d293b01c9aac}, !- Space Type Name
  ,                                       !- Default Construction Set Name
  ,                                       !- Default Schedule Set Name
  0,                                      !- Direction of Relative North {deg}
  0,                                      !- X Origin {m}
  0,                                      !- Y Origin {m}
  0,                                      !- Z Origin {m}
  {598930d2-37e5-42f6-916a-59beb3aebe45}, !- Building Story Name
  {fce6a268-2936-4080-a371-49adb33bb446}; !- Thermal Zone Name

OS:Surface,
  {6d825951-5a96-4d9c-856a-825cccb0cf9a}, !- Handle
  P_GuestRoom413_10321_0_10172,           !- Name
  Wall,                                   !- Surface Type
  ,                                       !- Construction Name
  {c500b375-15fc-4e9d-b0b1-3113a325d7eb}, !- Space Name
  Surface,                                !- Outside Boundary Condition
  {4cd929db-88b7-4d22-83f8-fc67c6ac1c1b}, !- Outside Boundary Condition Object
  NoSun,                                  !- Sun Exposure
  NoWind,                                 !- Wind Exposure
  ,                                       !- View Factor to Ground
  ,                                       !- Number of Vertices
  48.5118844242, 8.27902922, 11.5824,     !- X,Y,Z Vertex 1 {m}
  48.5118844242, 8.27902922, 8.8392,      !- X,Y,Z Vertex 2 {m}
  48.5118844242, 0.04884522, 8.8392,      !- X,Y,Z Vertex 3 {m}
  48.5118844242, 0.04884522, 11.5824;     !- X,Y,Z Vertex 4 {m}

OS:Connection,
  {fbc7c13b-14fe-4330-899a-0becac95df7e}, !- Handle
  ,                                       !- Source Object
  11,                                     !- Outlet Port
  ,                                       !- Target Object
  2;                                      !- Inlet Port

OS:Space,
  {c500b375-15fc-4e9d-b0b1-3113a325d7eb}, !- Handle
  GuestRoom413,                           !- Name
  {5ca86fce-20c3-46c4-a378-d293b01c9aac}, !- Space Type Name
  ,                                       !- Default Construction Set Name
  ,                                       !- Default Schedule Set Name
  0,                                      !- Direction of Relative North {deg}
  0,                                      !- X Origin {m}
  0,                                      !- Y Origin {m}
  0,                                      !- Z Origin {m}
  {598930d2-37e5-42f6-916a-59beb3aebe45}, !- Building Story Name
  {a56767aa-2efb-4a07-b121-8f6133d3faba}; !- Thermal Zone Name

OS:Surface,
  {1283f671-619c-49ab-b5ec-91749e467da5}, !- Handle
  P_GuestRoom103_10026_0_10024,           !- Name
  Wall,                                   !- Surface Type
  ,                                       !- Construction Name
  {c3815c02-c039-40d5-bd9e-3aa8723ae1f6}, !- Space Name
  Surface,                                !- Outside Boundary Condition
  {0142e4a3-3a91-46d0-b231-52033ca312ae}, !- Outside Boundary Condition Object
  NoSun,                                  !- Sun Exposure
  NoWind,                                 !- Wind Exposure
  ,                                       !- View Factor to Ground
  ,                                       !- Number of Vertices
  52.47428442, 8.2790292198, 3.3528,      !- X,Y,Z Vertex 1 {m}
  52.47428442, 8.2790292198, 0,           !- X,Y,Z Vertex 2 {m}
  48.51188442, 8.2790292198, 0,           !- X,Y,Z Vertex 3 {m}
  48.51188442, 8.2790292198, 3.3528;      !- X,Y,Z Vertex 4 {m}

OS:Connection,
  {ff02caa5-3343-4fc0-9044-dc985c0a9eab}, !- Handle
  ,                                       !- Source Object
  11,                                     !- Outlet Port
  ,                                       !- Target Object
  2;                                      !- Inlet Port

OS:Space,
  {c3815c02-c039-40d5-bd9e-3aa8723ae1f6}, !- Handle
  GuestRoom103,                           !- Name
  {5ca86fce-20c3-46c4-a378-d293b01c9aac}, !- Space Type Name
  ,                                       !- Default Construction Set Name
  ,                                       !- Default Schedule Set Name
  0,                                      !- Direction of Relative North {deg}
  0,                                      !- X Origin {m}
  0,                                      !- Y Origin {m}
  0,                                      !- Z Origin {m}
  {ecca0920-11a7-47b2-a376-103d79332642}, !- Building Story Name
  {244070d8-a678-44e0-97ba-cab176d6447a}; !- Thermal Zone Name

OS:Connection,
  {c2564dde-d183-49e1-8f66-e1cfa92f5813}, !- Handle
  ,                                       !- Source Object
  11,                                     !- Outlet Port
  ,                                       !- Target Object
  2;                                      !- Inlet Port

OS:Space,
  {b1548dbe-dfc0-46a3-9008-47b54bb73600}, !- Handle
  GuestRoom209_212,                       !- Name
  {5ca86fce-20c3-46c4-a378-d293b01c9aac}, !- Space Type Name
  ,                                       !- Default Construction Set Name
  ,                                       !- Default Schedule Set Name
  0,                                      !- Direction of Relative North {deg}
  0,                                      !- X Origin {m}
  0,                                      !- Y Origin {m}
  0,                                      !- Z Origin {m}
  {64fa6f7e-85e6-47e6-ac14-a191ce9fe253}, !- Building Story Name
  {39534d22-6138-475b-804d-5e2fd0a6ed66}; !- Thermal Zone Name

OS:Connection,
  {dc2ea7a1-a7b2-4172-add6-0b623a36e9c9}, !- Handle
  ,                                       !- Source Object
  11,                                     !- Outlet Port
  ,                                       !- Target Object
  2;                                      !- Inlet Port

OS:Space,
  {00a26ae5-1835-4e67-bf63-ff3980d68bef}, !- Handle
  CorridorFlr2,                           !- Name
  {7cd7e6cd-0ad8-4a4f-89f8-1819ca4f265c}, !- Space Type Name
  ,                                       !- Default Construction Set Name
  ,                                       !- Default Schedule Set Name
  0,                                      !- Direction of Relative North {deg}
  0,                                      !- X Origin {m}
  0,                                      !- Y Origin {m}
  0,                                      !- Z Origin {m}
  {64fa6f7e-85e6-47e6-ac14-a191ce9fe253}, !- Building Story Name
  {5f893e26-4e8a-4026-b5ea-f0937155984d}; !- Thermal Zone Name

OS:Connection,
  {5d423a03-37ad-4681-8ca7-d4db7739a714}, !- Handle
  ,                                       !- Source Object
  11,                                     !- Outlet Port
  ,                                       !- Target Object
  2;                                      !- Inlet Port

OS:Space,
  {1bfc91c4-f18a-456e-b39d-0d4a1a907a45}, !- Handle
  FrontStairsFlr2,                        !- Name
  {3ed7a219-7dda-41c2-a27b-7adb7e93a3d4}, !- Space Type Name
  ,                                       !- Default Construction Set Name
  ,                                       !- Default Schedule Set Name
  0,                                      !- Direction of Relative North {deg}
  0,                                      !- X Origin {m}
  0,                                      !- Y Origin {m}
  0,                                      !- Z Origin {m}
  {64fa6f7e-85e6-47e6-ac14-a191ce9fe253}, !- Building Story Name
  {a8227a75-e5be-47af-b52d-9788f5f240eb}; !- Thermal Zone Name

OS:Surface,
  {16a71a24-7ba9-4fbc-9307-bcfaf92702cc}, !- Handle
  F_GuestRoom320_323_10177_0_10098,       !- Name
  Floor,                                  !- Surface Type
  ,                                       !- Construction Name
  {4160cb4c-7f40-4de5-8119-2144b2cc25c5}, !- Space Name
  Surface,                                !- Outside Boundary Condition
  {d6e921d4-a16f-4a33-ac3d-ccf4bb7c7513}, !- Outside Boundary Condition Object
  NoSun,                                  !- Sun Exposure
  NoWind,                                 !- Wind Exposure
  ,                                       !- View Factor to Ground
  ,                                       !- Number of Vertices
  23.82308442, 18.33742922, 6.096,        !- X,Y,Z Vertex 1 {m}
  23.82308442, 10.10782922, 6.096,        !- X,Y,Z Vertex 2 {m}
  7.97348442, 10.10782922, 6.096,         !- X,Y,Z Vertex 3 {m}
  7.97348442, 18.33742922, 6.096;         !- X,Y,Z Vertex 4 {m}

OS:Connection,
  {3a2ecc4c-5450-4e83-9f03-66f56e0b678b}, !- Handle
  ,                                       !- Source Object
  11,                                     !- Outlet Port
  ,                                       !- Target Object
  2;                                      !- Inlet Port

OS:Space,
  {4160cb4c-7f40-4de5-8119-2144b2cc25c5}, !- Handle
  GuestRoom320_323,                       !- Name
  {5ca86fce-20c3-46c4-a378-d293b01c9aac}, !- Space Type Name
  ,                                       !- Default Construction Set Name
  ,                                       !- Default Schedule Set Name
  0,                                      !- Direction of Relative North {deg}
  0,                                      !- X Origin {m}
  0,                                      !- Y Origin {m}
  0,                                      !- Z Origin {m}
  {a0267c62-2b20-48a3-a3ac-400cdbdf753f}, !- Building Story Name
  {ae4ec7ff-46cf-4d74-a423-9e56bd5f39d1}; !- Thermal Zone Name

OS:Surface,
  {3caf56a8-8123-4ef5-9c41-ee66fbfa3119}, !- Handle
  P_FrontStorageFlr1_10088_0_10056,       !- Name
  Wall,                                   !- Surface Type
  ,                                       !- Construction Name
  {4b2c1c60-44e4-4035-9436-d5611d6f0b0e}, !- Space Name
  Surface,                                !- Outside Boundary Condition
  {11a68b72-c441-4d7f-ab3f-479b94ce28bc}, !- Outside Boundary Condition Object
  NoSun,                                  !- Sun Exposure
  NoWind,                                 !- Wind Exposure
  ,                                       !- View Factor to Ground
  ,                                       !- Number of Vertices
  4.011084424, 10.10782922, 3.3528,       !- X,Y,Z Vertex 1 {m}
  4.011084424, 10.10782922, 0,            !- X,Y,Z Vertex 2 {m}
  4.011084424, 18.33742922, 0,            !- X,Y,Z Vertex 3 {m}
  4.011084424, 18.33742922, 3.3528;       !- X,Y,Z Vertex 4 {m}

OS:Connection,
  {fda5e5ee-bb76-4e9e-b867-0030d01a4114}, !- Handle
  ,                                       !- Source Object
  11,                                     !- Outlet Port
  ,                                       !- Target Object
  2;                                      !- Inlet Port

OS:Space,
  {4b2c1c60-44e4-4035-9436-d5611d6f0b0e}, !- Handle
  FrontStorageFlr1,                       !- Name
  {462ff843-73d9-42a2-84d2-455016972b92}, !- Space Type Name
  ,                                       !- Default Construction Set Name
  ,                                       !- Default Schedule Set Name
  0,                                      !- Direction of Relative North {deg}
  0,                                      !- X Origin {m}
  0,                                      !- Y Origin {m}
  0,                                      !- Z Origin {m}
  {ecca0920-11a7-47b2-a376-103d79332642}, !- Building Story Name
  {0fa8dbc4-531e-4e36-a856-85c7a29da633}; !- Thermal Zone Name

OS:Connection,
  {00de4710-11d6-44e5-906e-f7fd9f750a42}, !- Handle
  ,                                       !- Source Object
  11,                                     !- Outlet Port
  ,                                       !- Target Object
  2;                                      !- Inlet Port

OS:Space,
  {e80c37ba-d8e3-4b27-87c8-4e4091f4d18f}, !- Handle
  GuestRoom105,                           !- Name
  {5ca86fce-20c3-46c4-a378-d293b01c9aac}, !- Space Type Name
  ,                                       !- Default Construction Set Name
  ,                                       !- Default Schedule Set Name
  0,                                      !- Direction of Relative North {deg}
  0,                                      !- X Origin {m}
  0,                                      !- Y Origin {m}
  0,                                      !- Z Origin {m}
  {ecca0920-11a7-47b2-a376-103d79332642}, !- Building Story Name
  {2029bbdd-03aa-4c6c-984a-903dafd933f5}; !- Thermal Zone Name

OS:Connection,
  {f09bbd4d-6b85-4a8a-97e7-c549a7b887b5}, !- Handle
  ,                                       !- Source Object
  11,                                     !- Outlet Port
  ,                                       !- Target Object
  2;                                      !- Inlet Port

OS:Space,
  {4803251a-3f60-4748-915b-5b4e6edcbb57}, !- Handle
  GuestRoom419,                           !- Name
  {5ca86fce-20c3-46c4-a378-d293b01c9aac}, !- Space Type Name
  ,                                       !- Default Construction Set Name
  ,                                       !- Default Schedule Set Name
  0,                                      !- Direction of Relative North {deg}
  0,                                      !- X Origin {m}
  0,                                      !- Y Origin {m}
  0,                                      !- Z Origin {m}
  {598930d2-37e5-42f6-916a-59beb3aebe45}, !- Building Story Name
  {25dfe769-780f-42ac-8b29-1c3ab141b100}; !- Thermal Zone Name

OS:Surface,
  {d8af1ad0-09b4-4e7f-af93-f04cbeb9552b}, !- Handle
  S_CorridorFlr1_0_0_0,                   !- Name
  Floor,                                  !- Surface Type
  ,                                       !- Construction Name
  {663c7a10-7b04-4537-baa8-c6a88ea5b0d3}, !- Space Name
  Ground,                                 !- Outside Boundary Condition
  ,                                       !- Outside Boundary Condition Object
  NoSun,                                  !- Sun Exposure
  NoWind,                                 !- Wind Exposure
  ,                                       !- View Factor to Ground
  ,                                       !- Number of Vertices
  26.8710844241, 18.3374292198, 0,        !- X,Y,Z Vertex 1 {m}
  26.8710844241, 10.1078292198, 0,        !- X,Y,Z Vertex 2 {m}
  54.9132684242, 10.1078292198, 0,        !- X,Y,Z Vertex 3 {m}
  54.9132684242, 8.2790292198, 0,         !- X,Y,Z Vertex 4 {m}
  26.8710844241, 8.2790292198, 0,         !- X,Y,Z Vertex 5 {m}
  26.8710844241, 0.0488452197, 0,         !- X,Y,Z Vertex 6 {m}
  23.8230844241, 0.0488452197, 0,         !- X,Y,Z Vertex 7 {m}
  23.8230844241, 8.2790292198, 0,         !- X,Y,Z Vertex 8 {m}
  0.048684424, 8.2790292198, 0,           !- X,Y,Z Vertex 9 {m}
  0.048684424, 10.1078292198, 0,          !- X,Y,Z Vertex 10 {m}
  23.8230844241, 10.1078292198, 0,        !- X,Y,Z Vertex 11 {m}
  23.8230844241, 18.3374292198, 0;        !- X,Y,Z Vertex 12 {m}

OS:Connection,
  {3741890d-4b20-4e88-b8ed-dec97dba7e46}, !- Handle
  ,                                       !- Source Object
  11,                                     !- Outlet Port
  ,                                       !- Target Object
  2;                                      !- Inlet Port

OS:Space,
  {663c7a10-7b04-4537-baa8-c6a88ea5b0d3}, !- Handle
  CorridorFlr1,                           !- Name
  {7cd7e6cd-0ad8-4a4f-89f8-1819ca4f265c}, !- Space Type Name
  ,                                       !- Default Construction Set Name
  ,                                       !- Default Schedule Set Name
  0,                                      !- Direction of Relative North {deg}
  0,                                      !- X Origin {m}
  0,                                      !- Y Origin {m}
  0,                                      !- Z Origin {m}
  {ecca0920-11a7-47b2-a376-103d79332642}, !- Building Story Name
  {80cfe0f7-73fb-4cff-afd9-e3410c42ed88}; !- Thermal Zone Name

OS:Connection,
  {86dc8868-0a46-4570-aa7c-1f8850f4fb61}, !- Handle
  ,                                       !- Source Object
  11,                                     !- Outlet Port
  ,                                       !- Target Object
  2;                                      !- Inlet Port

OS:Space,
  {4f1a062c-c10c-4c1c-abe2-f9adedcfdd8b}, !- Handle
  GuestRoom402_405,                       !- Name
  {5ca86fce-20c3-46c4-a378-d293b01c9aac}, !- Space Type Name
  ,                                       !- Default Construction Set Name
  ,                                       !- Default Schedule Set Name
  0,                                      !- Direction of Relative North {deg}
  0,                                      !- X Origin {m}
  0,                                      !- Y Origin {m}
  0,                                      !- Z Origin {m}
  {598930d2-37e5-42f6-916a-59beb3aebe45}, !- Building Story Name
  {99a7b384-a8ac-4799-8421-902a02323e93}; !- Thermal Zone Name

OS:Connection,
  {317e4273-ca93-48d3-87f5-864b8f20ab58}, !- Handle
  ,                                       !- Source Object
  11,                                     !- Outlet Port
  ,                                       !- Target Object
  2;                                      !- Inlet Port

OS:Space,
  {93e2a0a3-3d7b-43de-9044-00f7514c2ffa}, !- Handle
  GuestRoom224,                           !- Name
  {5ca86fce-20c3-46c4-a378-d293b01c9aac}, !- Space Type Name
  ,                                       !- Default Construction Set Name
  ,                                       !- Default Schedule Set Name
  0,                                      !- Direction of Relative North {deg}
  0,                                      !- X Origin {m}
  0,                                      !- Y Origin {m}
  0,                                      !- Z Origin {m}
  {64fa6f7e-85e6-47e6-ac14-a191ce9fe253}, !- Building Story Name
  {4f4c4b5f-4973-4a8c-86b2-313f73883fd4}; !- Thermal Zone Name

OS:Surface,
  {5114dafc-720e-4c92-a39f-5465873140fd}, !- Handle
  P_RearStorageFlr3_4_0_0,                !- Name
  Wall,                                   !- Surface Type
  ,                                       !- Construction Name
  {ca87098f-56ad-44d7-82a4-672cf235733f}, !- Space Name
  Surface,                                !- Outside Boundary Condition
  {551d9da8-17d7-48a8-9f7f-97250d99333e}, !- Outside Boundary Condition Object
  NoSun,                                  !- Sun Exposure
  NoWind,                                 !- Wind Exposure
  ,                                       !- View Factor to Ground
  ,                                       !- Number of Vertices
  52.4742844242, 8.27902922, 8.8392,      !- X,Y,Z Vertex 1 {m}
  52.4742844242, 8.27902922, 6.096,       !- X,Y,Z Vertex 2 {m}
  52.4742844242, 0.04884522, 6.096,       !- X,Y,Z Vertex 3 {m}
  52.4742844242, 0.04884522, 8.8392;      !- X,Y,Z Vertex 4 {m}

OS:Connection,
  {9c3d00da-2cfb-4e4b-9bd9-5355ba63723c}, !- Handle
  ,                                       !- Source Object
  11,                                     !- Outlet Port
  ,                                       !- Target Object
  2;                                      !- Inlet Port

OS:Space,
  {ca87098f-56ad-44d7-82a4-672cf235733f}, !- Handle
  RearStorageFlr3,                        !- Name
  {462ff843-73d9-42a2-84d2-455016972b92}, !- Space Type Name
  ,                                       !- Default Construction Set Name
  ,                                       !- Default Schedule Set Name
  0,                                      !- Direction of Relative North {deg}
  0,                                      !- X Origin {m}
  0,                                      !- Y Origin {m}
  0,                                      !- Z Origin {m}
  {a0267c62-2b20-48a3-a3ac-400cdbdf753f}, !- Building Story Name
  {72c0dd51-eec5-41b9-9444-bb0cc528e496}; !- Thermal Zone Name

OS:Surface,
  {407a1918-9bd3-46a1-a430-28fe78bbb6cf}, !- Handle
  P_CorridorFlr2_16_0_0,                  !- Name
  Wall,                                   !- Surface Type
  ,                                       !- Construction Name
  {00a26ae5-1835-4e67-bf63-ff3980d68bef}, !- Space Name
  Surface,                                !- Outside Boundary Condition
  {26e7ee5b-3e1e-4fd9-8da0-859ee9868630}, !- Outside Boundary Condition Object
  NoSun,                                  !- Sun Exposure
  NoWind,                                 !- Wind Exposure
  ,                                       !- View Factor to Ground
  ,                                       !- Number of Vertices
  0.04868442, 8.2790292198, 6.096,        !- X,Y,Z Vertex 1 {m}
  0.04868442, 8.2790292198, 3.3528,       !- X,Y,Z Vertex 2 {m}
  4.01108442, 8.2790292198, 3.3528,       !- X,Y,Z Vertex 3 {m}
  4.01108442, 8.2790292198, 6.096;        !- X,Y,Z Vertex 4 {m}

OS:Surface,
  {56e24e6f-be3d-456a-927b-b20907ce0e06}, !- Handle
  P_MechanicalRoomFlr1_10023_0_10021,     !- Name
  Wall,                                   !- Surface Type
  ,                                       !- Construction Name
  {bab6abf9-2a5f-4da1-819e-9f8cfd12025b}, !- Space Name
  Surface,                                !- Outside Boundary Condition
  {996d4f65-b483-4b05-90a6-24fcd5ab58cc}, !- Outside Boundary Condition Object
  NoSun,                                  !- Sun Exposure
  NoWind,                                 !- Wind Exposure
  ,                                       !- View Factor to Ground
  ,                                       !- Number of Vertices
  40.58708442, 8.2790292198, 3.3528,      !- X,Y,Z Vertex 1 {m}
  40.58708442, 8.2790292198, 0,           !- X,Y,Z Vertex 2 {m}
  36.62468442, 8.2790292198, 0,           !- X,Y,Z Vertex 3 {m}
  36.62468442, 8.2790292198, 3.3528;      !- X,Y,Z Vertex 4 {m}

OS:Connection,
  {fd69f861-bd8a-4845-af5f-af8778a504bb}, !- Handle
  ,                                       !- Source Object
  11,                                     !- Outlet Port
  ,                                       !- Target Object
  2;                                      !- Inlet Port

OS:Space,
  {bab6abf9-2a5f-4da1-819e-9f8cfd12025b}, !- Handle
  MechanicalRoomFlr1,                     !- Name
  {f4f03fab-acd3-46d7-a05a-53c1d612a395}, !- Space Type Name
  ,                                       !- Default Construction Set Name
  ,                                       !- Default Schedule Set Name
  0,                                      !- Direction of Relative North {deg}
  0,                                      !- X Origin {m}
  0,                                      !- Y Origin {m}
  0,                                      !- Z Origin {m}
  {ecca0920-11a7-47b2-a376-103d79332642}, !- Building Story Name
  {3636127a-bfa5-42d6-98d3-3762f3015221}; !- Thermal Zone Name

OS:Surface,
  {e315e3aa-07e4-495a-81c8-3111fe79ec28}, !- Handle
  S_GuestRoom103_0_0_0,                   !- Name
  Floor,                                  !- Surface Type
  ,                                       !- Construction Name
  {c3815c02-c039-40d5-bd9e-3aa8723ae1f6}, !- Space Name
  Ground,                                 !- Outside Boundary Condition
  ,                                       !- Outside Boundary Condition Object
  NoSun,                                  !- Sun Exposure
  NoWind,                                 !- Wind Exposure
  ,                                       !- View Factor to Ground
  ,                                       !- Number of Vertices
  52.4742844242, 8.2790292198, 0,         !- X,Y,Z Vertex 1 {m}
  52.4742844242, 0.0488452197, 0,         !- X,Y,Z Vertex 2 {m}
  48.5118844242, 0.0488452197, 0,         !- X,Y,Z Vertex 3 {m}
  48.5118844242, 8.2790292198, 0;         !- X,Y,Z Vertex 4 {m}

OS:Connection,
  {c426a891-6365-49ad-bf5c-ba44b8cb7ff4}, !- Handle
  ,                                       !- Source Object
  11,                                     !- Outlet Port
  ,                                       !- Target Object
  2;                                      !- Inlet Port

OS:Space,
  {2d4b6e12-d4bf-4424-97bb-a740e66cd852}, !- Handle
  GuestRoom420_423,                       !- Name
  {5ca86fce-20c3-46c4-a378-d293b01c9aac}, !- Space Type Name
  ,                                       !- Default Construction Set Name
  ,                                       !- Default Schedule Set Name
  0,                                      !- Direction of Relative North {deg}
  0,                                      !- X Origin {m}
  0,                                      !- Y Origin {m}
  0,                                      !- Z Origin {m}
  {598930d2-37e5-42f6-916a-59beb3aebe45}, !- Building Story Name
  {1a4aba6b-89a9-413b-91b1-38c79eccb672}; !- Thermal Zone Name

OS:Surface,
  {b021f7b7-e622-4aca-bce7-1b63724f0d47}, !- Handle
  W_GuestRoom302_305_5_0_0,               !- Name
  Wall,                                   !- Surface Type
  ,                                       !- Construction Name
  {10e307a3-1143-4d08-acb2-fd7e3f2f827f}, !- Space Name
  Outdoors,                               !- Outside Boundary Condition
  ,                                       !- Outside Boundary Condition Object
  SunExposed,                             !- Sun Exposure
  WindExposed,                            !- Wind Exposure
  ,                                       !- View Factor to Ground
  ,                                       !- Number of Vertices
  4.011084424, 0.0488452197, 8.8392,      !- X,Y,Z Vertex 1 {m}
  4.011084424, 0.0488452197, 6.096,       !- X,Y,Z Vertex 2 {m}
  19.8606844241, 0.0488452197, 6.096,     !- X,Y,Z Vertex 3 {m}
  19.8606844241, 0.0488452197, 8.8392;    !- X,Y,Z Vertex 4 {m}

OS:Connection,
  {2e49209b-1f89-4ab3-af38-17bd2636dc3e}, !- Handle
  ,                                       !- Source Object