
OS:Version,
  {334c83a2-7a90-4d01-91e7-1c1404787f04}, !- Handle
  3.2.1;                                  !- Version Identifier

OS:ScheduleTypeLimits,
  {fa474fc5-8c94-4517-9ae0-584d093057c1}, !- Handle
  Always On Discrete Limits,              !- Name
  0,                                      !- Lower Limit Value
  1,                                      !- Upper Limit Value
  Discrete,                               !- Numeric Type
  Availability;                           !- Unit Type

OS:Site,
  {81c5ec36-9212-46b2-b70e-8ca2dcd95a5f}, !- Handle
  CORNER BROOK_NL_CAN,                    !- Name
  48.98,                                  !- Latitude {deg}
  -57.92,                                 !- Longitude {deg}
  -4,                                     !- Time Zone {hr}
  151.8,                                  !- Elevation {m}
  City;                                   !- Terrain

OS:SimulationControl,
  {3e4a010b-ca10-4145-8485-7051dccae060}, !- Handle
  Yes,                                    !- Do Zone Sizing Calculation
  Yes,                                    !- Do System Sizing Calculation
  Yes,                                    !- Do Plant Sizing Calculation
  No,                                     !- Run Simulation for Sizing Periods
  Yes,                                    !- Run Simulation for Weather File Run Periods
  0.04,                                   !- Loads Convergence Tolerance Value {W}
  0.2,                                    !- Temperature Convergence Tolerance Value {deltaC}
  FullInteriorAndExterior,                !- Solar Distribution
  25,                                     !- Maximum Number of Warmup Days
  6,                                      !- Minimum Number of Warmup Days
  No,                                     !- Do HVAC Sizing Simulation for Sizing Periods
  1;                                      !- Maximum Number of HVAC Sizing Simulation Passes

OS:Space,
  {6d4b145e-6290-4db5-94c7-e6a0101bb568}, !- Handle
  F8 SE Apartment,                        !- Name
  {406349fc-ee64-4618-aaa2-892652ede66c}, !- Space Type Name
  ,                                       !- Default Construction Set Name
  ,                                       !- Default Schedule Set Name
  0,                                      !- Direction of Relative North {deg}
  34.7455,                                !- X Origin {m}
  0,                                      !- Y Origin {m}
  21.3349,                                !- Z Origin {m}
  {544f7c18-a05a-475d-bc1c-052b70a7250f}, !- Building Story Name
  {70b15d4e-4e5e-466d-ace7-b07273505097}, !- Thermal Zone Name
  Yes;                                    !- Part of Total Floor Area

OS:Surface,
  {c2baedb2-68d8-4f64-8004-031d71aa6381}, !- Handle
  F8 SWall SWA,                           !- Name
  Wall,                                   !- Surface Type
  ,                                       !- Construction Name
  {d84ee205-d43e-4943-a790-84b8bf6f9ca4}, !- Space Name
  Outdoors,                               !- Outside Boundary Condition
  ,                                       !- Outside Boundary Condition Object
  SunExposed,                             !- Sun Exposure
  WindExposed,                            !- Wind Exposure
  ,                                       !- View Factor to Ground
  ,                                       !- Number of Vertices
  0, 0, 3.0478,                           !- X,Y,Z Vertex 1 {m}
  0, 0, 0,                                !- X,Y,Z Vertex 2 {m}
  11.5818, 0, 0,                          !- X,Y,Z Vertex 3 {m}
  11.5818, 0, 3.0478;                     !- X,Y,Z Vertex 4 {m}

OS:Space,
  {d84ee205-d43e-4943-a790-84b8bf6f9ca4}, !- Handle
  F8 SW Apartment,                        !- Name
  {406349fc-ee64-4618-aaa2-892652ede66c}, !- Space Type Name
  ,                                       !- Default Construction Set Name
  ,                                       !- Default Schedule Set Name
  0,                                      !- Direction of Relative North {deg}
  0,                                      !- X Origin {m}
  0,                                      !- Y Origin {m}
  21.3349,                                !- Z Origin {m}
  {544f7c18-a05a-475d-bc1c-052b70a7250f}, !- Building Story Name
  {f2d444db-9a7f-4b27-ad2f-2ec9279b63a4}, !- Thermal Zone Name
  Yes;                                    !- Part of Total Floor Area

OS:Space,
  {f9e9cc1b-92b2-4137-a907-8ec0bcb2e213}, !- Handle
  F2 NE Apartment,                        !- Name
  {406349fc-ee64-4618-aaa2-892652ede66c}, !- Space Type Name
  ,                                       !- Default Construction Set Name
  ,                                       !- Default Schedule Set Name
  0,                                      !- Direction of Relative North {deg}
  34.7455,                                !- X Origin {m}
  9.2959,                                 !- Y Origin {m}
  3.0478,                                 !- Z Origin {m}
  {a2b638f1-1130-432a-a5c4-93a04fafe48c}, !- Building Story Name
  {b9fd5d72-dae0-43b0-b285-65f4667cd8a2}, !- Thermal Zone Name
  Yes;                                    !- Part of Total Floor Area

OS:Space,
  {f2b46cc0-f376-4431-adc7-cb1e05181b48}, !- Handle
  F6 NE Apartment,                        !- Name
  {406349fc-ee64-4618-aaa2-892652ede66c}, !- Space Type Name
  ,                                       !- Default Construction Set Name
  ,                                       !- Default Schedule Set Name
  0,                                      !- Direction of Relative North {deg}
  34.7455,                                !- X Origin {m}
  9.2959,                                 !- Y Origin {m}
  15.2393,                                !- Z Origin {m}
  {4c48a6b9-e181-49d3-8080-cdda26af9999}, !- Building Story Name
  {64c012a4-5808-4306-97b4-c37765066a64}, !- Thermal Zone Name
  Yes;                                    !- Part of Total Floor Area

OS:Surface,
  {ffe26593-1cf4-4cd6-a098-a697141ba7a8}, !- Handle
  F9 Ceilin SEA,                          !- Name
  RoofCeiling,                            !- Surface Type
  ,                                       !- Construction Name
  {6d8d751c-74e3-4a6c-bcc3-b72e7538a2fb}, !- Space Name
  Surface,                                !- Outside Boundary Condition
  {816627ba-346d-4684-b88f-638da08c723e}, !- Outside Boundary Condition Object
  NoSun,                                  !- Sun Exposure
  NoWind,                                 !- Wind Exposure
  ,                                       !- View Factor to Ground
  ,                                       !- Number of Vertices
  11.5818, 0, 3.0478,                     !- X,Y,Z Vertex 1 {m}
  11.5818, 7.6196, 3.0478,                !- X,Y,Z Vertex 2 {m}
  0, 7.6196, 3.0478,                      !- X,Y,Z Vertex 3 {m}
  0, 0, 3.0478;                           !- X,Y,Z Vertex 4 {m}

OS:Space,
  {6d8d751c-74e3-4a6c-bcc3-b72e7538a2fb}, !- Handle
  F9 SE Apartment,                        !- Name
  {406349fc-ee64-4618-aaa2-892652ede66c}, !- Space Type Name
  ,                                       !- Default Construction Set Name
  ,                                       !- Default Schedule Set Name
  0,                                      !- Direction of Relative North {deg}
  34.7455,                                !- X Origin {m}
  0,                                      !- Y Origin {m}
  24.3828,                                !- Z Origin {m}
  {fd521446-1452-42b9-af2b-cf7aee8be80c}, !- Building Story Name
  {2372f939-bf37-4508-937b-8d3484627c38}, !- Thermal Zone Name
  Yes;                                    !- Part of Total Floor Area

OS:Space,
  {c031d425-efac-47ef-88ee-0c430e4aac2b}, !- Handle
  F4 N1 Apartment,                        !- Name
  {406349fc-ee64-4618-aaa2-892652ede66c}, !- Space Type Name
  ,                                       !- Default Construction Set Name
  ,                                       !- Default Schedule Set Name
  0,                                      !- Direction of Relative North {deg}
  11.5818,                                !- X Origin {m}
  9.2959,                                 !- Y Origin {m}
  9.1435,                                 !- Z Origin {m}
  {ad88f024-9d05-417c-8cbb-5bde3adb58d4}, !- Building Story Name
  {669c0490-c36e-4d8e-b7e1-aee44adae8b2}, !- Thermal Zone Name
  Yes;                                    !- Part of Total Floor Area

OS:Space,
  {d7128868-016c-4937-b3f8-2473a58614ad}, !- Handle
  F6 S1 Apartment,                        !- Name
  {406349fc-ee64-4618-aaa2-892652ede66c}, !- Space Type Name
  ,                                       !- Default Construction Set Name
  ,                                       !- Default Schedule Set Name
  0,                                      !- Direction of Relative North {deg}
  11.5818,                                !- X Origin {m}
  0,                                      !- Y Origin {m}
  15.2393,                                !- Z Origin {m}
  {4c48a6b9-e181-49d3-8080-cdda26af9999}, !- Building Story Name
  {dae8e081-efd5-4c65-8b52-e69e8db2d81b}, !- Thermal Zone Name
  Yes;                                    !- Part of Total Floor Area

OS:Surface,
  {66997cdc-989a-4c86-86c6-725af0a433e8}, !- Handle
  F2 SIWall N1A,                          !- Name
  Wall,                                   !- Surface Type
  ,                                       !- Construction Name
  {c30af11b-47c9-403d-aa2d-639be6e603e7}, !- Space Name
  Surface,                                !- Outside Boundary Condition
  {46f10c23-12c3-4ca0-bb21-85d0a528f246}, !- Outside Boundary Condition Object
  NoSun,                                  !- Sun Exposure
  NoWind,                                 !- Wind Exposure
  0,                                      !- View Factor to Ground
  ,                                       !- Number of Vertices
  0, 0, 3.0478,                           !- X,Y,Z Vertex 1 {m}
  0, 0, 0,                                !- X,Y,Z Vertex 2 {m}
  11.5818, 0, 0,                          !- X,Y,Z Vertex 3 {m}
  11.5818, 0, 3.0478;                     !- X,Y,Z Vertex 4 {m}

OS:Space,
  {c30af11b-47c9-403d-aa2d-639be6e603e7}, !- Handle
  F2 N1 Apartment,                        !- Name
  {406349fc-ee64-4618-aaa2-892652ede66c}, !- Space Type Name
  ,                                       !- Default Construction Set Name
  ,                                       !- Default Schedule Set Name
  0,                                      !- Direction of Relative North {deg}
  11.5818,                                !- X Origin {m}
  9.2959,                                 !- Y Origin {m}
  3.0478,                                 !- Z Origin {m}
  {a2b638f1-1130-432a-a5c4-93a04fafe48c}, !- Building Story Name
  {1f55cf7f-4a3b-46d0-ac47-b872dfcfb21e}, !- Thermal Zone Name
  Yes;                                    !- Part of Total Floor Area

OS:Space,
  {9e44e8ab-7dfa-4ab1-953b-09c208185d23}, !- Handle
  F2 Corridor,                            !- Name
  {258a6b63-ee96-43ad-9750-1518d88a15dd}, !- Space Type Name
  ,                                       !- Default Construction Set Name
  ,                                       !- Default Schedule Set Name
  0,                                      !- Direction of Relative North {deg}
  0,                                      !- X Origin {m}
  7.6196,                                 !- Y Origin {m}
  3.0478,                                 !- Z Origin {m}
  {a2b638f1-1130-432a-a5c4-93a04fafe48c}, !- Building Story Name
  {40003e04-15d8-48d8-913d-abf5a419839f}, !- Thermal Zone Name
  Yes;                                    !- Part of Total Floor Area

OS:Surface,
  {46f10c23-12c3-4ca0-bb21-85d0a528f246}, !- Handle
  F2 SIWall N1A Reversed,                 !- Name
  Wall,                                   !- Surface Type
  ,                                       !- Construction Name
  {9e44e8ab-7dfa-4ab1-953b-09c208185d23}, !- Space Name
  Surface,                                !- Outside Boundary Condition
  {66997cdc-989a-4c86-86c6-725af0a433e8}, !- Outside Boundary Condition Object
  NoSun,                                  !- Sun Exposure
  NoWind,                                 !- Wind Exposure
  ,                                       !- View Factor to Ground
  ,                                       !- Number of Vertices
  23.1636, 1.6763, 3.0478,                !- X,Y,Z Vertex 1 {m}
  23.1636, 1.6763, 0,                     !- X,Y,Z Vertex 2 {m}
  11.5818, 1.6763, 0,                     !- X,Y,Z Vertex 3 {m}
  11.5818, 1.6763, 3.0478;                !- X,Y,Z Vertex 4 {m}

OS:Space,
  {9a43b8f6-905b-423a-94ab-c835c3bc5b36}, !- Handle
  F7 S1 Apartment,                        !- Name
  {406349fc-ee64-4618-aaa2-892652ede66c}, !- Space Type Name
  ,                                       !- Default Construction Set Name
  ,                                       !- Default Schedule Set Name
  0,                                      !- Direction of Relative North {deg}
  11.5818,                                !- X Origin {m}
  0,                                      !- Y Origin {m}
  18.2871,                                !- Z Origin {m}
  {7359995c-5e35-43af-b359-334de67128e9}, !- Building Story Name
  {e8cc0677-b119-47ff-aba2-e3862214d361}, !- Thermal Zone Name
  Yes;                                    !- Part of Total Floor Area

OS:Surface,
  {08ec81f5-46fa-465d-8e7f-200a96dbc6c3}, !- Handle
  F2 SWall S1A,                           !- Name
  Wall,                                   !- Surface Type
  ,                                       !- Construction Name
  {b5fa5830-dde1-4724-b2a1-f97f7f21d0cf}, !- Space Name
  Outdoors,                               !- Outside Boundary Condition
  ,                                       !- Outside Boundary Condition Object
  SunExposed,                             !- Sun Exposure
  WindExposed,                            !- Wind Exposure
  ,                                       !- View Factor to Ground
  ,                                       !- Number of Vertices
  0, 0, 3.0478,                           !- X,Y,Z Vertex 1 {m}
  0, 0, 0,                                !- X,Y,Z Vertex 2 {m}
  11.5818, 0, 0,                          !- X,Y,Z Vertex 3 {m}
  11.5818, 0, 3.0478;                     !- X,Y,Z Vertex 4 {m}

OS:Space,
  {b5fa5830-dde1-4724-b2a1-f97f7f21d0cf}, !- Handle
  F2 S1 Apartment,                        !- Name
  {406349fc-ee64-4618-aaa2-892652ede66c}, !- Space Type Name
  ,                                       !- Default Construction Set Name
  ,                                       !- Default Schedule Set Name
  0,                                      !- Direction of Relative North {deg}
  11.5818,                                !- X Origin {m}
  0,                                      !- Y Origin {m}
  3.0478,                                 !- Z Origin {m}
  {a2b638f1-1130-432a-a5c4-93a04fafe48c}, !- Building Story Name
  {8683b91b-d6f6-4e7c-ab87-5fb5bb5f773d}, !- Thermal Zone Name
  Yes;                                    !- Part of Total Floor Area

OS:Space,
  {1ef97cef-75c1-4f4e-9f4e-37524f8b597c}, !- Handle
  F4 S2 Apartment,                        !- Name
  {406349fc-ee64-4618-aaa2-892652ede66c}, !- Space Type Name
  ,                                       !- Default Construction Set Name
  ,                                       !- Default Schedule Set Name
  0,                                      !- Direction of Relative North {deg}
  23.1637,                                !- X Origin {m}
  0,                                      !- Y Origin {m}
  9.1435,                                 !- Z Origin {m}
  {ad88f024-9d05-417c-8cbb-5bde3adb58d4}, !- Building Story Name
  {56ccf963-399a-4082-8e69-0e057d9d0d71}, !- Thermal Zone Name
  Yes;                                    !- Part of Total Floor Area

OS:Space,
  {d24601fb-ccfe-47b3-a853-b00044fde72b}, !- Handle
  F3 SE Apartment,                        !- Name
  {406349fc-ee64-4618-aaa2-892652ede66c}, !- Space Type Name
  ,                                       !- Default Construction Set Name
  ,                                       !- Default Schedule Set Name
  0,                                      !- Direction of Relative North {deg}
  34.7455,                                !- X Origin {m}
  0,                                      !- Y Origin {m}
  6.0957,                                 !- Z Origin {m}
  {fc0c2f5c-fab2-4c47-9af9-34bf95affbfe}, !- Building Story Name
  {b62ed2ee-5e96-4eec-9b8c-de6b9d2274fa}, !- Thermal Zone Name
  Yes;                                    !- Part of Total Floor Area

OS:Surface,
  {47f17958-51dd-4058-813e-7f29f7ed0afa}, !- Handle
  F7 EWall SEA,                           !- Name
  Wall,                                   !- Surface Type
  ,                                       !- Construction Name
  {3c8b128d-f97b-42f5-bc14-7e13e58947b8}, !- Space Name
  Outdoors,                               !- Outside Boundary Condition
  ,                                       !- Outside Boundary Condition Object
  SunExposed,                             !- Sun Exposure
  WindExposed,                            !- Wind Exposure
  ,                                       !- View Factor to Ground
  ,                                       !- Number of Vertices
  11.5818, 0, 3.0478,                     !- X,Y,Z Vertex 1 {m}
  11.5818, 0, 0,                          !- X,Y,Z Vertex 2 {m}
  11.5818, 7.6196, 0,                     !- X,Y,Z Vertex 3 {m}
  11.5818, 7.6196, 3.0478;                !- X,Y,Z Vertex 4 {m}

OS:Space,
  {3c8b128d-f97b-42f5-bc14-7e13e58947b8}, !- Handle
  F7 SE Apartment,                        !- Name
  {406349fc-ee64-4618-aaa2-892652ede66c}, !- Space Type Name
  ,                                       !- Default Construction Set Name
  ,                                       !- Default Schedule Set Name
  0,                                      !- Direction of Relative North {deg}
  34.7455,                                !- X Origin {m}
  0,                                      !- Y Origin {m}
  18.2871,                                !- Z Origin {m}
  {7359995c-5e35-43af-b359-334de67128e9}, !- Building Story Name
  {2bb204a1-e418-4ce3-9492-ec1ea527c778}, !- Thermal Zone Name
  Yes;                                    !- Part of Total Floor Area

OS:Space,
  {d4adf65e-1e8f-4170-a802-ebd0f65052d3}, !- Handle
  F6 SE Apartment,                        !- Name
  {406349fc-ee64-4618-aaa2-892652ede66c}, !- Space Type Name
  ,                                       !- Default Construction Set Name
  ,                                       !- Default Schedule Set Name
  0,                                      !- Direction of Relative North {deg}
  34.7455,                                !- X Origin {m}
  0,                                      !- Y Origin {m}
  15.2393,                                !- Z Origin {m}
  {4c48a6b9-e181-49d3-8080-cdda26af9999}, !- Building Story Name
  {75a1cc93-73dc-41ac-8b7b-95a9b926193d}, !- Thermal Zone Name
  Yes;                                    !- Part of Total Floor Area

OS:Space,
  {82fcbae9-2e3b-4316-8c40-1df5eb23239a}, !- Handle
  F7 NW Apartment,                        !- Name
  {406349fc-ee64-4618-aaa2-892652ede66c}, !- Space Type Name
  ,                                       !- Default Construction Set Name
  ,                                       !- Default Schedule Set Name
  0,                                      !- Direction of Relative North {deg}
  0,                                      !- X Origin {m}
  9.2959,                                 !- Y Origin {m}
  18.2871,                                !- Z Origin {m}
  {7359995c-5e35-43af-b359-334de67128e9}, !- Building Story Name
  {9c0b5f92-c827-4998-b096-6f18e2cac2d1}, !- Thermal Zone Name
  Yes;                                    !- Part of Total Floor Area

OS:Surface,
  {ee0d95cd-b276-4975-8d97-f0d984b0754d}, !- Handle
  F7 NWall N2A,                           !- Name
  Wall,                                   !- Surface Type
  ,                                       !- Construction Name
  {29847cc0-7d35-4f46-abf3-53da24d1af64}, !- Space Name
  Outdoors,                               !- Outside Boundary Condition
  ,                                       !- Outside Boundary Condition Object
  SunExposed,                             !- Sun Exposure
  WindExposed,                            !- Wind Exposure
  ,                                       !- View Factor to Ground
  ,                                       !- Number of Vertices
  11.5818, 7.6196, 3.0478,                !- X,Y,Z Vertex 1 {m}
  11.5818, 7.6196, 0,                     !- X,Y,Z Vertex 2 {m}
  0, 7.6196, 0,                           !- X,Y,Z Vertex 3 {m}
  0, 7.6196, 3.0478;                      !- X,Y,Z Vertex 4 {m}

OS:Space,
  {29847cc0-7d35-4f46-abf3-53da24d1af64}, !- Handle
  F7 N2 Apartment,                        !- Name
  {406349fc-ee64-4618-aaa2-892652ede66c}, !- Space Type Name
  ,                                       !- Default Construction Set Name
  ,                                       !- Default Schedule Set Name
  0,                                      !- Direction of Relative North {deg}
  23.1637,                                !- X Origin {m}
  9.2959,                                 !- Y Origin {m}
  18.2871,                                !- Z Origin {m}
  {7359995c-5e35-43af-b359-334de67128e9}, !- Building Story Name
  {bee353f5-981b-4200-b6a1-6d71bcd58506}, !- Thermal Zone Name
  Yes;                                    !- Part of Total Floor Area

OS:Space,
  {a7e0c9ce-9475-4893-9d2d-f3066bb6019d}, !- Handle
  M NE Apartment,                         !- Name
  {406349fc-ee64-4618-aaa2-892652ede66c}, !- Space Type Name
  ,                                       !- Default Construction Set Name
  ,                                       !- Default Schedule Set Name
  0,                                      !- Direction of Relative North {deg}
  34.7455,                                !- X Origin {m}
  9.2959,                                 !- Y Origin {m}
  12.1914,                                !- Z Origin {m}
  {2de45b79-1ee4-4f93-9330-276d005d7549}, !- Building Story Name
  {21be9f6a-b3bc-4930-8808-41dfe1907ffc}, !- Thermal Zone Name
  Yes;                                    !- Part of Total Floor Area

OS:Space,
  {40b2267f-7f9a-490d-a474-b5adf60eb09e}, !- Handle
  F7 SW Apartment,                        !- Name
  {406349fc-ee64-4618-aaa2-892652ede66c}, !- Space Type Name
  ,                                       !- Default Construction Set Name
  ,                                       !- Default Schedule Set Name
  0,                                      !- Direction of Relative North {deg}
  0,                                      !- X Origin {m}
  0,                                      !- Y Origin {m}
  18.2871,                                !- Z Origin {m}
  {7359995c-5e35-43af-b359-334de67128e9}, !- Building Story Name
  {f878d62f-e1cf-474c-96cc-89e8ff23ffa6}, !- Thermal Zone Name
  Yes;                                    !- Part of Total Floor Area

OS:Space,
  {bcf7eafc-5d93-43c5-a057-ead256103515}, !- Handle
  F3 NW Apartment,                        !- Name
  {406349fc-ee64-4618-aaa2-892652ede66c}, !- Space Type Name
  ,                                       !- Default Construction Set Name
  ,                                       !- Default Schedule Set Name
  0,                                      !- Direction of Relative North {deg}
  0,                                      !- X Origin {m}
  9.2959,                                 !- Y Origin {m}
  6.0957,                                 !- Z Origin {m}
  {fc0c2f5c-fab2-4c47-9af9-34bf95affbfe}, !- Building Story Name
  {abea425e-d242-4afa-91df-3c6dfbddedc2}, !- Thermal Zone Name
  Yes;                                    !- Part of Total Floor Area

OS:Space,
  {4d7b84bd-8948-48e8-a916-25cb48ae7f16}, !- Handle
  F4 S1 Apartment,                        !- Name
  {406349fc-ee64-4618-aaa2-892652ede66c}, !- Space Type Name
  ,                                       !- Default Construction Set Name
  ,                                       !- Default Schedule Set Name
  0,                                      !- Direction of Relative North {deg}
  11.5818,                                !- X Origin {m}
  0,                                      !- Y Origin {m}
  9.1435,                                 !- Z Origin {m}
  {ad88f024-9d05-417c-8cbb-5bde3adb58d4}, !- Building Story Name
  {b7f332ea-7891-4109-8a6d-dd842d33a1a4}, !- Thermal Zone Name
  Yes;                                    !- Part of Total Floor Area

OS:Surface,
  {9c13f8a2-d3b7-4ea6-b683-2270c6df213f}, !- Handle
  F8 NWall N1A,                           !- Name
  Wall,                                   !- Surface Type
  ,                                       !- Construction Name
  {111adf91-7278-4630-af41-b49ed431c4e9}, !- Space Name
  Outdoors,                               !- Outside Boundary Condition
  ,                                       !- Outside Boundary Condition Object
  SunExposed,                             !- Sun Exposure
  WindExposed,                            !- Wind Exposure
  ,                                       !- View Factor to Ground
  ,                                       !- Number of Vertices
  11.5818, 7.6196, 3.0478,                !- X,Y,Z Vertex 1 {m}
  11.5818, 7.6196, 0,                     !- X,Y,Z Vertex 2 {m}
  0, 7.6196, 0,                           !- X,Y,Z Vertex 3 {m}
  0, 7.6196, 3.0478;                      !- X,Y,Z Vertex 4 {m}

OS:Space,
  {111adf91-7278-4630-af41-b49ed431c4e9}, !- Handle
  F8 N1 Apartment,                        !- Name
  {406349fc-ee64-4618-aaa2-892652ede66c}, !- Space Type Name
  ,                                       !- Default Construction Set Name
  ,                                       !- Default Schedule Set Name
  0,                                      !- Direction of Relative North {deg}
  11.5818,                                !- X Origin {m}
  9.2959,                                 !- Y Origin {m}
  21.3349,                                !- Z Origin {m}
  {544f7c18-a05a-475d-bc1c-052b70a7250f}, !- Building Story Name
  {3bed9203-6a7b-4d7d-bdf3-8355661eac51}, !- Thermal Zone Name
  Yes;                                    !- Part of Total Floor Area

OS:Surface,
  {d32fef61-ebd9-4a32-99c7-c89b01865c7c}, !- Handle
  F7 GFloor NEA,                          !- Name
  Floor,                                  !- Surface Type
  ,                                       !- Construction Name
  {a6ba6668-68aa-4f83-b33b-1e7ef3aff5fe}, !- Space Name
  Surface,                                !- Outside Boundary Condition
  {bc165e41-1de8-4f56-9c6e-4eb6e8f18e7f}, !- Outside Boundary Condition Object
  NoSun,                                  !- Sun Exposure
  NoWind,                                 !- Wind Exposure
  ,                                       !- View Factor to Ground
  ,                                       !- Number of Vertices
  11.5818, 7.6196, 0,                     !- X,Y,Z Vertex 1 {m}
  11.5818, 0, 0,                          !- X,Y,Z Vertex 2 {m}
  0, 0, 0,                                !- X,Y,Z Vertex 3 {m}
  0, 7.6196, 0;                           !- X,Y,Z Vertex 4 {m}

OS:Space,
  {a6ba6668-68aa-4f83-b33b-1e7ef3aff5fe}, !- Handle
  F7 NE Apartment,                        !- Name
  {406349fc-ee64-4618-aaa2-892652ede66c}, !- Space Type Name
  ,                                       !- Default Construction Set Name
  ,                                       !- Default Schedule Set Name
  0,                                      !- Direction of Relative North {deg}
  34.7455,                                !- X Origin {m}
  9.2959,                                 !- Y Origin {m}
  18.2871,                                !- Z Origin {m}
  {7359995c-5e35-43af-b359-334de67128e9}, !- Building Story Name
  {370fd16b-d56f-4053-802c-3c5675aab647}, !- Thermal Zone Name
  Yes;                                    !- Part of Total Floor Area

OS:Space,
  {d8cc7b7c-958f-4752-b8c8-ddb4c88825f5}, !- Handle
  F8 N2 Apartment,                        !- Name
  {406349fc-ee64-4618-aaa2-892652ede66c}, !- Space Type Name
  ,                                       !- Default Construction Set Name
  ,                                       !- Default Schedule Set Name
  0,                                      !- Direction of Relative North {deg}
  23.1637,                                !- X Origin {m}
  9.2959,                                 !- Y Origin {m}
  21.3349,                                !- Z Origin {m}
  {544f7c18-a05a-475d-bc1c-052b70a7250f}, !- Building Story Name
  {3774ebaf-8084-492f-a85e-91a9a27cd068}, !- Thermal Zone Name
  Yes;                                    !- Part of Total Floor Area

OS:Space,
  {7912e142-bcd1-4ce7-bc21-aaffae128464}, !- Handle
  F9 S1 Apartment,                        !- Name
  {406349fc-ee64-4618-aaa2-892652ede66c}, !- Space Type Name
  ,                                       !- Default Construction Set Name
  ,                                       !- Default Schedule Set Name
  0,                                      !- Direction of Relative North {deg}
  11.5818,                                !- X Origin {m}
  0,                                      !- Y Origin {m}
  24.3828,                                !- Z Origin {m}
  {fd521446-1452-42b9-af2b-cf7aee8be80c}, !- Building Story Name
  {3e13cdb4-401d-4a05-ba45-47b279ac838f}, !- Thermal Zone Name
  Yes;                                    !- Part of Total Floor Area

OS:Surface,
  {b2cf5e06-dae7-4bde-a02f-29f82eba43cd}, !- Handle
  m NIWall S1A,                           !- Name
  Wall,                                   !- Surface Type
  ,                                       !- Construction Name