
OS:Version,
  {f1295d78-06c9-421e-98a7-427bbc73281a}, !- Handle
  3.2.1;                                  !- Version Identifier

OS:ScheduleTypeLimits,
  {7aa079ee-b040-42bf-807f-cf6b34881ab5}, !- Handle
  Always On Discrete Limits,              !- Name
  0,                                      !- Lower Limit Value
  1,                                      !- Upper Limit Value
  Discrete,                               !- Numeric Type
  Availability;                           !- Unit Type

OS:Site,
  {81c5ec36-9212-46b2-b70e-8ca2dcd95a5f}, !- Handle
  HALIFAX INTL A_NS_CAN,                  !- Name
  44.88,                                  !- Latitude {deg}
  -63.51,                                 !- Longitude {deg}
  -4,                                     !- Time Zone {hr}
  145.4,                                  !- Elevation {m}
  City;                                   !- Terrain

OS:SimulationControl,
  {3e4a010b-ca10-4145-8485-7051dccae060}, !- Handle
  Yes,                                    !- Do Zone Sizing Calculation
  Yes,                                    !- Do System Sizing Calculation
  Yes,                                    !- Do Plant Sizing Calculation
  No,                                     !- Run Simulation for Sizing Periods
  Yes,                                    !- Run Simulation for Weather File Run Periods
  0.04,                                   !- Loads Convergence Tolerance Value {W}
  0.2,                                    !- Temperature Convergence Tolerance Value {deltaC}
  FullInteriorAndExterior,                !- Solar Distribution
  25,                                     !- Maximum Number of Warmup Days
  6,                                      !- Minimum Number of Warmup Days
  No,                                     !- Do HVAC Sizing Simulation for Sizing Periods
  1;                                      !- Maximum Number of HVAC Sizing Simulation Passes

OS:Space,
  {6d4b145e-6290-4db5-94c7-e6a0101bb568}, !- Handle
  F8 SE Apartment,                        !- Name
  {406349fc-ee64-4618-aaa2-892652ede66c}, !- Space Type Name
  ,                                       !- Default Construction Set Name
  ,                                       !- Default Schedule Set Name
  0,                                      !- Direction of Relative North {deg}
  34.7455,                                !- X Origin {m}
  0,                                      !- Y Origin {m}
  21.3349,                                !- Z Origin {m}
  {544f7c18-a05a-475d-bc1c-052b70a7250f}, !- Building Story Name
  {fbd0407c-4f2b-4e79-8464-eb26b311abaa}, !- Thermal Zone Name
  Yes;                                    !- Part of Total Floor Area

OS:Surface,
  {c2baedb2-68d8-4f64-8004-031d71aa6381}, !- Handle
  F8 SWall SWA,                           !- Name
  Wall,                                   !- Surface Type
  ,                                       !- Construction Name
  {d84ee205-d43e-4943-a790-84b8bf6f9ca4}, !- Space Name
  Outdoors,                               !- Outside Boundary Condition
  ,                                       !- Outside Boundary Condition Object
  SunExposed,                             !- Sun Exposure
  WindExposed,                            !- Wind Exposure
  ,                                       !- View Factor to Ground
  ,                                       !- Number of Vertices
  0, 0, 3.0478,                           !- X,Y,Z Vertex 1 {m}
  0, 0, 0,                                !- X,Y,Z Vertex 2 {m}
  11.5818, 0, 0,                          !- X,Y,Z Vertex 3 {m}
  11.5818, 0, 3.0478;                     !- X,Y,Z Vertex 4 {m}

OS:Space,
  {d84ee205-d43e-4943-a790-84b8bf6f9ca4}, !- Handle
  F8 SW Apartment,                        !- Name
  {406349fc-ee64-4618-aaa2-892652ede66c}, !- Space Type Name
  ,                                       !- Default Construction Set Name
  ,                                       !- Default Schedule Set Name
  0,                                      !- Direction of Relative North {deg}
  0,                                      !- X Origin {m}
  0,                                      !- Y Origin {m}
  21.3349,                                !- Z Origin {m}
  {544f7c18-a05a-475d-bc1c-052b70a7250f}, !- Building Story Name
  {5c62f36a-e795-4d2b-9f86-a68fe21ab3ec}, !- Thermal Zone Name
  Yes;                                    !- Part of Total Floor Area

OS:Space,
  {f9e9cc1b-92b2-4137-a907-8ec0bcb2e213}, !- Handle
  F2 NE Apartment,                        !- Name
  {406349fc-ee64-4618-aaa2-892652ede66c}, !- Space Type Name
  ,                                       !- Default Construction Set Name
  ,                                       !- Default Schedule Set Name
  0,                                      !- Direction of Relative North {deg}
  34.7455,                                !- X Origin {m}
  9.2959,                                 !- Y Origin {m}
  3.0478,                                 !- Z Origin {m}
  {a2b638f1-1130-432a-a5c4-93a04fafe48c}, !- Building Story Name
  {0649a6ff-f5ff-49e5-8c05-230e0bb4bf34}, !- Thermal Zone Name
  Yes;                                    !- Part of Total Floor Area

OS:Space,
  {f2b46cc0-f376-4431-adc7-cb1e05181b48}, !- Handle
  F6 NE Apartment,                        !- Name
  {406349fc-ee64-4618-aaa2-892652ede66c}, !- Space Type Name
  ,                                       !- Default Construction Set Name
  ,                                       !- Default Schedule Set Name
  0,                                      !- Direction of Relative North {deg}
  34.7455,                                !- X Origin {m}
  9.2959,                                 !- Y Origin {m}
  15.2393,                                !- Z Origin {m}
  {4c48a6b9-e181-49d3-8080-cdda26af9999}, !- Building Story Name
  {88d6fb56-1d62-4214-a429-81f5899b5462}, !- Thermal Zone Name
  Yes;                                    !- Part of Total Floor Area

OS:Surface,
  {ffe26593-1cf4-4cd6-a098-a697141ba7a8}, !- Handle
  F9 Ceilin SEA,                          !- Name
  RoofCeiling,                            !- Surface Type
  ,                                       !- Construction Name
  {6d8d751c-74e3-4a6c-bcc3-b72e7538a2fb}, !- Space Name
  Surface,                                !- Outside Boundary Condition
  {816627ba-346d-4684-b88f-638da08c723e}, !- Outside Boundary Condition Object
  NoSun,                                  !- Sun Exposure
  NoWind,                                 !- Wind Exposure
  ,                                       !- View Factor to Ground
  ,                                       !- Number of Vertices
  11.5818, 0, 3.0478,                     !- X,Y,Z Vertex 1 {m}
  11.5818, 7.6196, 3.0478,                !- X,Y,Z Vertex 2 {m}
  0, 7.6196, 3.0478,                      !- X,Y,Z Vertex 3 {m}
  0, 0, 3.0478;                           !- X,Y,Z Vertex 4 {m}

OS:Space,
  {6d8d751c-74e3-4a6c-bcc3-b72e7538a2fb}, !- Handle
  F9 SE Apartment,                        !- Name
  {406349fc-ee64-4618-aaa2-892652ede66c}, !- Space Type Name
  ,                                       !- Default Construction Set Name
  ,                                       !- Default Schedule Set Name
  0,                                      !- Direction of Relative North {deg}
  34.7455,                                !- X Origin {m}
  0,                                      !- Y Origin {m}
  24.3828,                                !- Z Origin {m}
  {fd521446-1452-42b9-af2b-cf7aee8be80c}, !- Building Story Name
  {4d8aa7d6-d6b4-487c-8401-ef68d65e0c28}, !- Thermal Zone Name
  Yes;                                    !- Part of Total Floor Area

OS:Space,
  {c031d425-efac-47ef-88ee-0c430e4aac2b}, !- Handle
  F4 N1 Apartment,                        !- Name
  {406349fc-ee64-4618-aaa2-892652ede66c}, !- Space Type Name
  ,                                       !- Default Construction Set Name
  ,                                       !- Default Schedule Set Name
  0,                                      !- Direction of Relative North {deg}
  11.5818,                                !- X Origin {m}
  9.2959,                                 !- Y Origin {m}
  9.1435,                                 !- Z Origin {m}
  {ad88f024-9d05-417c-8cbb-5bde3adb58d4}, !- Building Story Name
  {69e5da47-a802-4d37-96eb-739d8f7a2703}, !- Thermal Zone Name
  Yes;                                    !- Part of Total Floor Area

OS:Space,
  {d7128868-016c-4937-b3f8-2473a58614ad}, !- Handle
  F6 S1 Apartment,                        !- Name
  {406349fc-ee64-4618-aaa2-892652ede66c}, !- Space Type Name
  ,                                       !- Default Construction Set Name
  ,                                       !- Default Schedule Set Name
  0,                                      !- Direction of Relative North {deg}
  11.5818,                                !- X Origin {m}
  0,                                      !- Y Origin {m}
  15.2393,                                !- Z Origin {m}
  {4c48a6b9-e181-49d3-8080-cdda26af9999}, !- Building Story Name
  {da6e0516-ce0f-4b94-83cf-0523ac7f0eb7}, !- Thermal Zone Name
  Yes;                                    !- Part of Total Floor Area

OS:Surface,
  {66997cdc-989a-4c86-86c6-725af0a433e8}, !- Handle
  F2 SIWall N1A,                          !- Name
  Wall,                                   !- Surface Type
  ,                                       !- Construction Name
  {c30af11b-47c9-403d-aa2d-639be6e603e7}, !- Space Name
  Surface,                                !- Outside Boundary Condition
  {46f10c23-12c3-4ca0-bb21-85d0a528f246}, !- Outside Boundary Condition Object
  NoSun,                                  !- Sun Exposure
  NoWind,                                 !- Wind Exposure
  0,                                      !- View Factor to Ground
  ,                                       !- Number of Vertices
  0, 0, 3.0478,                           !- X,Y,Z Vertex 1 {m}
  0, 0, 0,                                !- X,Y,Z Vertex 2 {m}
  11.5818, 0, 0,                          !- X,Y,Z Vertex 3 {m}
  11.5818, 0, 3.0478;                     !- X,Y,Z Vertex 4 {m}

OS:Space,
  {c30af11b-47c9-403d-aa2d-639be6e603e7}, !- Handle
  F2 N1 Apartment,                        !- Name
  {406349fc-ee64-4618-aaa2-892652ede66c}, !- Space Type Name
  ,                                       !- Default Construction Set Name
  ,                                       !- Default Schedule Set Name
  0,                                      !- Direction of Relative North {deg}
  11.5818,                                !- X Origin {m}
  9.2959,                                 !- Y Origin {m}
  3.0478,                                 !- Z Origin {m}
  {a2b638f1-1130-432a-a5c4-93a04fafe48c}, !- Building Story Name
  {e85bc8b6-67a3-4b1e-b791-6998235bf906}, !- Thermal Zone Name
  Yes;                                    !- Part of Total Floor Area

OS:Space,
  {9e44e8ab-7dfa-4ab1-953b-09c208185d23}, !- Handle
  F2 Corridor,                            !- Name
  {258a6b63-ee96-43ad-9750-1518d88a15dd}, !- Space Type Name
  ,                                       !- Default Construction Set Name
  ,                                       !- Default Schedule Set Name
  0,                                      !- Direction of Relative North {deg}
  0,                                      !- X Origin {m}
  7.6196,                                 !- Y Origin {m}
  3.0478,                                 !- Z Origin {m}
  {a2b638f1-1130-432a-a5c4-93a04fafe48c}, !- Building Story Name
  {550d6e32-f5ff-4ba1-97a5-43cc5bfa2cb2}, !- Thermal Zone Name
  Yes;                                    !- Part of Total Floor Area

OS:Surface,
  {46f10c23-12c3-4ca0-bb21-85d0a528f246}, !- Handle
  F2 SIWall N1A Reversed,                 !- Name
  Wall,                                   !- Surface Type
  ,                                       !- Construction Name
  {9e44e8ab-7dfa-4ab1-953b-09c208185d23}, !- Space Name
  Surface,                                !- Outside Boundary Condition
  {66997cdc-989a-4c86-86c6-725af0a433e8}, !- Outside Boundary Condition Object
  NoSun,                                  !- Sun Exposure
  NoWind,                                 !- Wind Exposure
  ,                                       !- View Factor to Ground
  ,                                       !- Number of Vertices
  23.1636, 1.6763, 3.0478,                !- X,Y,Z Vertex 1 {m}
  23.1636, 1.6763, 0,                     !- X,Y,Z Vertex 2 {m}
  11.5818, 1.6763, 0,                     !- X,Y,Z Vertex 3 {m}
  11.5818, 1.6763, 3.0478;                !- X,Y,Z Vertex 4 {m}

OS:Space,
  {9a43b8f6-905b-423a-94ab-c835c3bc5b36}, !- Handle
  F7 S1 Apartment,                        !- Name
  {406349fc-ee64-4618-aaa2-892652ede66c}, !- Space Type Name
  ,                                       !- Default Construction Set Name
  ,                                       !- Default Schedule Set Name
  0,                                      !- Direction of Relative North {deg}
  11.5818,                                !- X Origin {m}
  0,                                      !- Y Origin {m}
  18.2871,                                !- Z Origin {m}
  {7359995c-5e35-43af-b359-334de67128e9}, !- Building Story Name
  {f1ef50b6-ac76-4563-9656-289716b12994}, !- Thermal Zone Name
  Yes;                                    !- Part of Total Floor Area

OS:Surface,
  {08ec81f5-46fa-465d-8e7f-200a96dbc6c3}, !- Handle
  F2 SWall S1A,                           !- Name
  Wall,                                   !- Surface Type
  ,                                       !- Construction Name
  {b5fa5830-dde1-4724-b2a1-f97f7f21d0cf}, !- Space Name
  Outdoors,                               !- Outside Boundary Condition
  ,                                       !- Outside Boundary Condition Object
  SunExposed,                             !- Sun Exposure
  WindExposed,                            !- Wind Exposure
  ,                                       !- View Factor to Ground
  ,                                       !- Number of Vertices
  0, 0, 3.0478,                           !- X,Y,Z Vertex 1 {m}
  0, 0, 0,                                !- X,Y,Z Vertex 2 {m}
  11.5818, 0, 0,                          !- X,Y,Z Vertex 3 {m}
  11.5818, 0, 3.0478;                     !- X,Y,Z Vertex 4 {m}

OS:Space,
  {b5fa5830-dde1-4724-b2a1-f97f7f21d0cf}, !- Handle
  F2 S1 Apartment,                        !- Name
  {406349fc-ee64-4618-aaa2-892652ede66c}, !- Space Type Name
  ,                                       !- Default Construction Set Name
  ,                                       !- Default Schedule Set Name
  0,                                      !- Direction of Relative North {deg}
  11.5818,                                !- X Origin {m}
  0,                                      !- Y Origin {m}
  3.0478,                                 !- Z Origin {m}
  {a2b638f1-1130-432a-a5c4-93a04fafe48c}, !- Building Story Name
  {ecb03fcb-8a9b-477d-a5f5-60156f4a1583}, !- Thermal Zone Name
  Yes;                                    !- Part of Total Floor Area

OS:Space,
  {1ef97cef-75c1-4f4e-9f4e-37524f8b597c}, !- Handle
  F4 S2 Apartment,                        !- Name
  {406349fc-ee64-4618-aaa2-892652ede66c}, !- Space Type Name
  ,                                       !- Default Construction Set Name
  ,                                       !- Default Schedule Set Name
  0,                                      !- Direction of Relative North {deg}
  23.1637,                                !- X Origin {m}
  0,                                      !- Y Origin {m}
  9.1435,                                 !- Z Origin {m}
  {ad88f024-9d05-417c-8cbb-5bde3adb58d4}, !- Building Story Name
  {51828575-4805-4837-aeb2-2fe6716250c8}, !- Thermal Zone Name
  Yes;                                    !- Part of Total Floor Area

OS:Space,
  {d24601fb-ccfe-47b3-a853-b00044fde72b}, !- Handle
  F3 SE Apartment,                        !- Name
  {406349fc-ee64-4618-aaa2-892652ede66c}, !- Space Type Name
  ,                                       !- Default Construction Set Name
  ,                                       !- Default Schedule Set Name
  0,                                      !- Direction of Relative North {deg}
  34.7455,                                !- X Origin {m}
  0,                                      !- Y Origin {m}
  6.0957,                                 !- Z Origin {m}
  {fc0c2f5c-fab2-4c47-9af9-34bf95affbfe}, !- Building Story Name
  {a5fd2ee5-7bf2-4168-baf5-eb893cd055bc}, !- Thermal Zone Name
  Yes;                                    !- Part of Total Floor Area

OS:Surface,
  {47f17958-51dd-4058-813e-7f29f7ed0afa}, !- Handle
  F7 EWall SEA,                           !- Name
  Wall,                                   !- Surface Type
  ,                                       !- Construction Name
  {3c8b128d-f97b-42f5-bc14-7e13e58947b8}, !- Space Name
  Outdoors,                               !- Outside Boundary Condition
  ,                                       !- Outside Boundary Condition Object
  SunExposed,                             !- Sun Exposure
  WindExposed,                            !- Wind Exposure
  ,                                       !- View Factor to Ground
  ,                                       !- Number of Vertices
  11.5818, 0, 3.0478,                     !- X,Y,Z Vertex 1 {m}
  11.5818, 0, 0,                          !- X,Y,Z Vertex 2 {m}
  11.5818, 7.6196, 0,                     !- X,Y,Z Vertex 3 {m}
  11.5818, 7.6196, 3.0478;                !- X,Y,Z Vertex 4 {m}

OS:Space,
  {3c8b128d-f97b-42f5-bc14-7e13e58947b8}, !- Handle
  F7 SE Apartment,                        !- Name
  {406349fc-ee64-4618-aaa2-892652ede66c}, !- Space Type Name
  ,                                       !- Default Construction Set Name
  ,                                       !- Default Schedule Set Name
  0,                                      !- Direction of Relative North {deg}
  34.7455,                                !- X Origin {m}
  0,                                      !- Y Origin {m}
  18.2871,                                !- Z Origin {m}
  {7359995c-5e35-43af-b359-334de67128e9}, !- Building Story Name
  {ac3c7dff-070a-4e02-9b56-4a5e6daae008}, !- Thermal Zone Name
  Yes;                                    !- Part of Total Floor Area

OS:Space,
  {d4adf65e-1e8f-4170-a802-ebd0f65052d3}, !- Handle
  F6 SE Apartment,                        !- Name
  {406349fc-ee64-4618-aaa2-892652ede66c}, !- Space Type Name
  ,                                       !- Default Construction Set Name
  ,                                       !- Default Schedule Set Name
  0,                                      !- Direction of Relative North {deg}
  34.7455,                                !- X Origin {m}
  0,                                      !- Y Origin {m}
  15.2393,                                !- Z Origin {m}
  {4c48a6b9-e181-49d3-8080-cdda26af9999}, !- Building Story Name
  {6f4bceb9-b660-4910-8571-57b436456852}, !- Thermal Zone Name
  Yes;                                    !- Part of Total Floor Area

OS:Space,
  {82fcbae9-2e3b-4316-8c40-1df5eb23239a}, !- Handle
  F7 NW Apartment,                        !- Name
  {406349fc-ee64-4618-aaa2-892652ede66c}, !- Space Type Name
  ,                                       !- Default Construction Set Name
  ,                                       !- Default Schedule Set Name
  0,                                      !- Direction of Relative North {deg}
  0,                                      !- X Origin {m}
  9.2959,                                 !- Y Origin {m}
  18.2871,                                !- Z Origin {m}
  {7359995c-5e35-43af-b359-334de67128e9}, !- Building Story Name
  {1b3f406e-c5d0-446a-a92d-b0ccdd0930b1}, !- Thermal Zone Name
  Yes;                                    !- Part of Total Floor Area

OS:Surface,
  {ee0d95cd-b276-4975-8d97-f0d984b0754d}, !- Handle
  F7 NWall N2A,                           !- Name
  Wall,                                   !- Surface Type
  ,                                       !- Construction Name
  {29847cc0-7d35-4f46-abf3-53da24d1af64}, !- Space Name
  Outdoors,                               !- Outside Boundary Condition
  ,                                       !- Outside Boundary Condition Object
  SunExposed,                             !- Sun Exposure
  WindExposed,                            !- Wind Exposure
  ,                                       !- View Factor to Ground
  ,                                       !- Number of Vertices
  11.5818, 7.6196, 3.0478,                !- X,Y,Z Vertex 1 {m}
  11.5818, 7.6196, 0,                     !- X,Y,Z Vertex 2 {m}
  0, 7.6196, 0,                           !- X,Y,Z Vertex 3 {m}
  0, 7.6196, 3.0478;                      !- X,Y,Z Vertex 4 {m}

OS:Space,
  {29847cc0-7d35-4f46-abf3-53da24d1af64}, !- Handle
  F7 N2 Apartment,                        !- Name
  {406349fc-ee64-4618-aaa2-892652ede66c}, !- Space Type Name
  ,                                       !- Default Construction Set Name
  ,                                       !- Default Schedule Set Name
  0,                                      !- Direction of Relative North {deg}
  23.1637,                                !- X Origin {m}
  9.2959,                                 !- Y Origin {m}
  18.2871,                                !- Z Origin {m}
  {7359995c-5e35-43af-b359-334de67128e9}, !- Building Story Name
  {2beca71c-3c22-48be-be99-6cb6c8b6f0dd}, !- Thermal Zone Name
  Yes;                                    !- Part of Total Floor Area

OS:Space,
  {a7e0c9ce-9475-4893-9d2d-f3066bb6019d}, !- Handle
  M NE Apartment,                         !- Name
  {406349fc-ee64-4618-aaa2-892652ede66c}, !- Space Type Name
  ,                                       !- Default Construction Set Name
  ,                                       !- Default Schedule Set Name
  0,                                      !- Direction of Relative North {deg}
  34.7455,                                !- X Origin {m}
  9.2959,                                 !- Y Origin {m}
  12.1914,                                !- Z Origin {m}
  {2de45b79-1ee4-4f93-9330-276d005d7549}, !- Building Story Name
  {3eaa8ef8-92ac-4c22-be83-123b2836c44a}, !- Thermal Zone Name
  Yes;                                    !- Part of Total Floor Area

OS:Space,
  {40b2267f-7f9a-490d-a474-b5adf60eb09e}, !- Handle
  F7 SW Apartment,                        !- Name
  {406349fc-ee64-4618-aaa2-892652ede66c}, !- Space Type Name
  ,                                       !- Default Construction Set Name
  ,                                       !- Default Schedule Set Name
  0,                                      !- Direction of Relative North {deg}
  0,                                      !- X Origin {m}
  0,                                      !- Y Origin {m}
  18.2871,                                !- Z Origin {m}
  {7359995c-5e35-43af-b359-334de67128e9}, !- Building Story Name
  {67b09785-ad32-4a16-a4f6-ea20c0fb4431}, !- Thermal Zone Name
  Yes;                                    !- Part of Total Floor Area

OS:Space,
  {bcf7eafc-5d93-43c5-a057-ead256103515}, !- Handle
  F3 NW Apartment,                        !- Name
  {406349fc-ee64-4618-aaa2-892652ede66c}, !- Space Type Name
  ,                                       !- Default Construction Set Name
  ,                                       !- Default Schedule Set Name
  0,                                      !- Direction of Relative North {deg}
  0,                                      !- X Origin {m}
  9.2959,                                 !- Y Origin {m}
  6.0957,                                 !- Z Origin {m}
  {fc0c2f5c-fab2-4c47-9af9-34bf95affbfe}, !- Building Story Name
  {e7883559-f0be-4c81-a394-ad516afb7030}, !- Thermal Zone Name
  Yes;                                    !- Part of Total Floor Area

OS:Space,
  {4d7b84bd-8948-48e8-a916-25cb48ae7f16}, !- Handle
  F4 S1 Apartment,                        !- Name
  {406349fc-ee64-4618-aaa2-892652ede66c}, !- Space Type Name
  ,                                       !- Default Construction Set Name
  ,                                       !- Default Schedule Set Name
  0,                                      !- Direction of Relative North {deg}
  11.5818,                                !- X Origin {m}
  0,                                      !- Y Origin {m}
  9.1435,                                 !- Z Origin {m}
  {ad88f024-9d05-417c-8cbb-5bde3adb58d4}, !- Building Story Name
  {df2595d5-dbb2-4c5d-9c2e-4842f0c46c0e}, !- Thermal Zone Name
  Yes;                                    !- Part of Total Floor Area

OS:Surface,
  {9c13f8a2-d3b7-4ea6-b683-2270c6df213f}, !- Handle
  F8 NWall N1A,                           !- Name
  Wall,                                   !- Surface Type
  ,                                       !- Construction Name
  {111adf91-7278-4630-af41-b49ed431c4e9}, !- Space Name
  Outdoors,                               !- Outside Boundary Condition
  ,                                       !- Outside Boundary Condition Object
  SunExposed,                             !- Sun Exposure
  WindExposed,                            !- Wind Exposure
  ,                                       !- View Factor to Ground
  ,                                       !- Number of Vertices
  11.5818, 7.6196, 3.0478,                !- X,Y,Z Vertex 1 {m}
  11.5818, 7.6196, 0,                     !- X,Y,Z Vertex 2 {m}
  0, 7.6196, 0,                           !- X,Y,Z Vertex 3 {m}
  0, 7.6196, 3.0478;                      !- X,Y,Z Vertex 4 {m}

OS:Space,
  {111adf91-7278-4630-af41-b49ed431c4e9}, !- Handle
  F8 N1 Apartment,                        !- Name
  {406349fc-ee64-4618-aaa2-892652ede66c}, !- Space Type Name
  ,                                       !- Default Construction Set Name
  ,                                       !- Default Schedule Set Name
  0,                                      !- Direction of Relative North {deg}
  11.5818,                                !- X Origin {m}
  9.2959,                                 !- Y Origin {m}
  21.3349,                                !- Z Origin {m}
  {544f7c18-a05a-475d-bc1c-052b70a7250f}, !- Building Story Name
  {01e96677-bda9-4a12-b38c-e808de299bd3}, !- Thermal Zone Name
  Yes;                                    !- Part of Total Floor Area

OS:Surface,
  {d32fef61-ebd9-4a32-99c7-c89b01865c7c}, !- Handle
  F7 GFloor NEA,                          !- Name
  Floor,                                  !- Surface Type
  ,                                       !- Construction Name
  {a6ba6668-68aa-4f83-b33b-1e7ef3aff5fe}, !- Space Name
  Surface,                                !- Outside Boundary Condition
  {bc165e41-1de8-4f56-9c6e-4eb6e8f18e7f}, !- Outside Boundary Condition Object
  NoSun,                                  !- Sun Exposure
  NoWind,                                 !- Wind Exposure
  ,                                       !- View Factor to Ground
  ,                                       !- Number of Vertices
  11.5818, 7.6196, 0,                     !- X,Y,Z Vertex 1 {m}
  11.5818, 0, 0,                          !- X,Y,Z Vertex 2 {m}
  0, 0, 0,                                !- X,Y,Z Vertex 3 {m}
  0, 7.6196, 0;                           !- X,Y,Z Vertex 4 {m}

OS:Space,
  {a6ba6668-68aa-4f83-b33b-1e7ef3aff5fe}, !- Handle
  F7 NE Apartment,                        !- Name
  {406349fc-ee64-4618-aaa2-892652ede66c}, !- Space Type Name
  ,                                       !- Default Construction Set Name
  ,                                       !- Default Schedule Set Name
  0,                                      !- Direction of Relative North {deg}
  34.7455,                                !- X Origin {m}
  9.2959,                                 !- Y Origin {m}
  18.2871,                                !- Z Origin {m}
  {7359995c-5e35-43af-b359-334de67128e9}, !- Building Story Name
  {01dcfbe5-74c4-4e32-a4a5-d65761cbe2e8}, !- Thermal Zone Name
  Yes;                                    !- Part of Total Floor Area

OS:Space,
  {d8cc7b7c-958f-4752-b8c8-ddb4c88825f5}, !- Handle
  F8 N2 Apartment,                        !- Name
  {406349fc-ee64-4618-aaa2-892652ede66c}, !- Space Type Name
  ,                                       !- Default Construction Set Name
  ,                                       !- Default Schedule Set Name
  0,                                      !- Direction of Relative North {deg}
  23.1637,                                !- X Origin {m}
  9.2959,                                 !- Y Origin {m}
  21.3349,                                !- Z Origin {m}
  {544f7c18-a05a-475d-bc1c-052b70a7250f}, !- Building Story Name
  {6321b6d0-e573-463f-bc10-310ed13fb572}, !- Thermal Zone Name
  Yes;                                    !- Part of Total Floor Area

OS:Space,
  {7912e142-bcd1-4ce7-bc21-aaffae128464}, !- Handle
  F9 S1 Apartment,                        !- Name
  {406349fc-ee64-4618-aaa2-892652ede66c}, !- Space Type Name
  ,                                       !- Default Construction Set Name
  ,                                       !- Default Schedule Set Name
  0,                                      !- Direction of Relative North {deg}
  11.5818,                                !- X Origin {m}
  0,                                      !- Y Origin {m}
  24.3828,                                !- Z Origin {m}
  {fd521446-1452-42b9-af2b-cf7aee8be80c}, !- Building Story Name
  {fed474de-eda0-4f23-bddb-0724fbd01386}, !- Thermal Zone Name
  Yes;                                    !- Part of Total Floor Area

OS:Surface,
  {b2cf5e06-dae7-4bde-a02f-29f82eba43cd}, !- Handle
  m NIWall S1A,                           !- Name
  Wall,                                   !- Surface Type
  ,                                       !- Construction Name