
OS:Version,
  {7a7a9db3-1bfa-48e2-86ae-25a3ee236d65}, !- Handle
  3.2.1;                                  !- Version Identifier

OS:ScheduleTypeLimits,
  {ac04aa36-3fc8-4964-a234-71dfc96f7741}, !- Handle
  Always On Discrete Limits,              !- Name
  0,                                      !- Lower Limit Value
  1,                                      !- Upper Limit Value
  Discrete,                               !- Numeric Type
  Availability;                           !- Unit Type

OS:Site,
  {5131d4fd-bdc3-4987-b252-b00022eb6fa7}, !- Handle
  Corner.Brook_NL_CAN,                    !- Name
  48.93,                                  !- Latitude {deg}
  -57.92,                                 !- Longitude {deg}
  -4,                                     !- Time Zone {hr}
  151.8,                                  !- Elevation {m}
  City;                                   !- Terrain

OS:SimulationControl,
  {7c54e0e2-3b7a-41a7-9307-fe262f4693df}, !- Handle
  Yes,                                    !- Do Zone Sizing Calculation
  Yes,                                    !- Do System Sizing Calculation
  Yes,                                    !- Do Plant Sizing Calculation
  No,                                     !- Run Simulation for Sizing Periods
  Yes,                                    !- Run Simulation for Weather File Run Periods
  0.04,                                   !- Loads Convergence Tolerance Value {W}
  0.2,                                    !- Temperature Convergence Tolerance Value {deltaC}
  FullInteriorAndExterior,                !- Solar Distribution
  25,                                     !- Maximum Number of Warmup Days
  6,                                      !- Minimum Number of Warmup Days
  No,                                     !- Do HVAC Sizing Simulation for Sizing Periods
  1;                                      !- Maximum Number of HVAC Sizing Simulation Passes

OS:Surface,
  {ea2e6ce6-6128-4151-b661-73815c44ea06}, !- Handle
  Dining_Wall_South,                      !- Name
  Wall,                                   !- Surface Type
  ,                                       !- Construction Name
  {227a53df-c60f-4814-9986-7262c5ebf0b0}, !- Space Name
  Outdoors,                               !- Outside Boundary Condition
  ,                                       !- Outside Boundary Condition Object
  SunExposed,                             !- Sun Exposure
  WindExposed,                            !- Wind Exposure
  ,                                       !- View Factor to Ground
  ,                                       !- Number of Vertices
  0, 0, 3.0488,                           !- X,Y,Z Vertex 1 {m}
  0, 0, 0,                                !- X,Y,Z Vertex 2 {m}
  15.2428, 0, 0,                          !- X,Y,Z Vertex 3 {m}
  15.2428, 0, 3.0488;                     !- X,Y,Z Vertex 4 {m}

OS:Space,
  {227a53df-c60f-4814-9986-7262c5ebf0b0}, !- Handle
  Dining,                                 !- Name
  {41250f5d-63cc-4f96-b73a-ea200366ec24}, !- Space Type Name
  ,                                       !- Default Construction Set Name
  ,                                       !- Default Schedule Set Name
  0,                                      !- Direction of Relative North {deg}
  0,                                      !- X Origin {m}
  0,                                      !- Y Origin {m}
  0,                                      !- Z Origin {m}
  {123b80d5-dd69-416a-98e2-41c71a91f505}, !- Building Story Name
  {1e78395d-21ee-47fb-a7e3-c1415d8234c8}, !- Thermal Zone Name
  Yes,                                    !- Part of Total Floor Area
  ;                                       !- Design Specification Outdoor Air Object Name

OS:Surface,
  {e6173982-c332-4cd4-8e85-d9c6d4cb0930}, !- Handle
  Kitchen_Wall_East,                      !- Name
  Wall,                                   !- Surface Type
  ,                                       !- Construction Name
  {ca5649c5-cc8d-4b71-9941-b893da8ba6a1}, !- Space Name
  Outdoors,                               !- Outside Boundary Condition
  ,                                       !- Outside Boundary Condition Object
  SunExposed,                             !- Sun Exposure
  WindExposed,                            !- Wind Exposure
  ,                                       !- View Factor to Ground
  ,                                       !- Number of Vertices
  15.2428, 7.6214, 3.0488,                !- X,Y,Z Vertex 1 {m}
  15.2428, 7.6214, 0,                     !- X,Y,Z Vertex 2 {m}
  15.2428, 15.2428, 0,                    !- X,Y,Z Vertex 3 {m}
  15.2428, 15.2428, 3.0488;               !- X,Y,Z Vertex 4 {m}

OS:Space,
  {ca5649c5-cc8d-4b71-9941-b893da8ba6a1}, !- Handle
  Kitchen,                                !- Name
  {5ac54b43-126c-483e-a319-df98961bd312}, !- Space Type Name
  ,                                       !- Default Construction Set Name
  ,                                       !- Default Schedule Set Name
  0,                                      !- Direction of Relative North {deg}
  0,                                      !- X Origin {m}
  0,                                      !- Y Origin {m}
  0,                                      !- Z Origin {m}
  {123b80d5-dd69-416a-98e2-41c71a91f505}, !- Building Story Name
  {960481b8-b192-4575-adcd-18fb3a33b27c}, !- Thermal Zone Name
  Yes;                                    !- Part of Total Floor Area

OS:Surface,
  {ca26efc0-2f1e-498e-99e2-2fc5e3f319dd}, !- Handle
  Dining_Wall_West,                       !- Name
  Wall,                                   !- Surface Type
  ,                                       !- Construction Name
  {227a53df-c60f-4814-9986-7262c5ebf0b0}, !- Space Name
  Outdoors,                               !- Outside Boundary Condition
  ,                                       !- Outside Boundary Condition Object
  SunExposed,                             !- Sun Exposure
  WindExposed,                            !- Wind Exposure
  ,                                       !- View Factor to Ground
  ,                                       !- Number of Vertices
  0, 7.6214, 3.0488,                      !- X,Y,Z Vertex 1 {m}
  0, 7.6214, 0,                           !- X,Y,Z Vertex 2 {m}
  0, 0, 0,                                !- X,Y,Z Vertex 3 {m}
  0, 0, 3.0488;                           !- X,Y,Z Vertex 4 {m}

OS:Surface,
  {7ae35256-3ec9-4852-b5d2-007b50623dbd}, !- Handle
  Kitchen_Floor,                          !- Name
  Floor,                                  !- Surface Type
  ,                                       !- Construction Name
  {ca5649c5-cc8d-4b71-9941-b893da8ba6a1}, !- Space Name
  Ground,                                 !- Outside Boundary Condition
  ,                                       !- Outside Boundary Condition Object
  NoSun,                                  !- Sun Exposure
  NoWind,                                 !- Wind Exposure
  ,                                       !- View Factor to Ground
  ,                                       !- Number of Vertices
  15.2428, 15.2428, 0,                    !- X,Y,Z Vertex 1 {m}
  15.2428, 7.6214, 0,                     !- X,Y,Z Vertex 2 {m}
  0, 7.6214, 0,                           !- X,Y,Z Vertex 3 {m}
  0, 15.2428, 0;                          !- X,Y,Z Vertex 4 {m}

OS:Space,
  {597594ef-5c7d-4f39-88b9-691ef2d8a8eb}, !- Handle
  attic,                                  !- Name
  {a24f27e0-d86b-4774-9632-e7e54d33dd6a}, !- Space Type Name
  ,                                       !- Default Construction Set Name
  ,                                       !- Default Schedule Set Name
  0,                                      !- Direction of Relative North {deg}
  0,                                      !- X Origin {m}
  0,                                      !- Y Origin {m}
  3.0488,                                 !- Z Origin {m}
  {5090125b-0d59-44b5-bedc-ceeedd108d8d}, !- Building Story Name
  {be98f962-45d4-4a4e-b9d7-dbdfcd5c3cad}, !- Thermal Zone Name
  No;                                     !- Part of Total Floor Area

OS:Output:Meter,
  {1d217ca0-6d2b-449e-8519-1957dc15f7a4}, !- Handle
  NaturalGas:Facility,                    !- Name
  hourly,                                 !- Reporting Frequency
  True,                                   !- Meter File Only
  False;                                  !- Cumulative

OS:HeatBalanceAlgorithm,
  {e3daa38c-dd95-42be-9f5b-3e83aecfe210}, !- Handle
  ConductionTransferFunction,             !- Algorithm
  200;                                    !- Surface Temperature Upper Limit {C}

OS:Building,
  {2359408b-6252-42dc-81e2-5632894e0032}, !- Handle
  QuickServiceRestaurant,                 !- Name
  ,                                       !- Building Sector Type
  0,                                      !- North Axis {deg}
  ,                                       !- Nominal Floor to Floor Height {m}
  ,                                       !- Space Type Name
  {fa1f4fd1-e669-457d-829f-bb2a1904c93e}, !- Default Construction Set Name
  ,                                       !- Default Schedule Set Name
  1,                                      !- Standards Number of Stories
  1,                                      !- Standards Number of Above Ground Stories
  NECB2017,                               !- Standards Template
  QuickServiceRestaurant;                 !- Standards Building Type

OS:Output:Meter,
  {78703274-d428-499c-a972-44dc302926ba}, !- Handle
  Electricity:Building,                   !- Name
  hourly,                                 !- Reporting Frequency
  True,                                   !- Meter File Only
  False;                                  !- Cumulative

OS:Surface,
  {23285ff9-2c6a-4cb5-9097-93028196dae1}, !- Handle
  north-roof,                             !- Name
  RoofCeiling,                            !- Surface Type
  ,                                       !- Construction Name
  {597594ef-5c7d-4f39-88b9-691ef2d8a8eb}, !- Space Name
  Outdoors,                               !- Outside Boundary Condition
  ,                                       !- Outside Boundary Condition Object
  SunExposed,                             !- Sun Exposure
  WindExposed,                            !- Wind Exposure
  ,                                       !- View Factor to Ground
  ,                                       !- Number of Vertices
  12.7023, 7.6214, 2.5405,                !- X,Y,Z Vertex 1 {m}
  15.2428, 15.2428, 0,                    !- X,Y,Z Vertex 2 {m}
  0, 15.2428, 0,                          !- X,Y,Z Vertex 3 {m}
  2.5405, 7.6214, 2.5405;                 !- X,Y,Z Vertex 4 {m}

OS:Surface,
  {2636ff31-c556-495c-b12e-5d6feddbc9cf}, !- Handle
  Dining_Wall_North-PPAutoCreateOther,    !- Name
  Wall,                                   !- Surface Type
  ,                                       !- Construction Name
  {ca5649c5-cc8d-4b71-9941-b893da8ba6a1}, !- Space Name
  Surface,                                !- Outside Boundary Condition
  {aeca9f74-baf7-4879-9ec6-6b786bd73254}, !- Outside Boundary Condition Object
  NoSun,                                  !- Sun Exposure
  NoWind,                                 !- Wind Exposure
  ,                                       !- View Factor to Ground
  ,                                       !- Number of Vertices
  0, 7.6214, 3.0488,                      !- X,Y,Z Vertex 1 {m}
  0, 7.6214, 0,                           !- X,Y,Z Vertex 2 {m}
  15.2428, 7.6214, 0,                     !- X,Y,Z Vertex 3 {m}
  15.2428, 7.6214, 3.0488;                !- X,Y,Z Vertex 4 {m}

OS:Surface,
  {a6bad208-b799-49a9-ac94-60afc3e2348c}, !- Handle
  east-roof,                              !- Name
  RoofCeiling,                            !- Surface Type
  ,                                       !- Construction Name
  {597594ef-5c7d-4f39-88b9-691ef2d8a8eb}, !- Space Name
  Outdoors,                               !- Outside Boundary Condition
  ,                                       !- Outside Boundary Condition Object
  SunExposed,                             !- Sun Exposure
  WindExposed,                            !- Wind Exposure
  ,                                       !- View Factor to Ground
  ,                                       !- Number of Vertices
  12.7023, 7.6214, 2.5405,                !- X,Y,Z Vertex 1 {m}
  15.2428, 0, -1.02093692033454e-015,     !- X,Y,Z Vertex 2 {m}
  15.2428, 15.2428, -1.02093692033454e-015; !- X,Y,Z Vertex 3 {m}

OS:Output:Meter,
  {7ae2d07a-e6f7-4bcf-a173-3d401bdd3ba1}, !- Handle
  Electricity:HVAC,                       !- Name
  hourly,                                 !- Reporting Frequency
  True,                                   !- Meter File Only
  False;                                  !- Cumulative

OS:RunPeriod,
  {896020ac-a51c-4d11-8a87-14b4cf75afe0}, !- Handle
  Run Period 1,                           !- Name
  1,                                      !- Begin Month
  1,                                      !- Begin Day of Month
  12,                                     !- End Month
  31,                                     !- End Day of Month
  No,                                     !- Use Weather File Holidays and Special Days
  No,                                     !- Use Weather File Daylight Saving Period
  No,                                     !- Apply Weekend Holiday Rule
  Yes,                                    !- Use Weather File Rain Indicators
  Yes,                                    !- Use Weather File Snow Indicators
  1;                                      !- Number of Times Runperiod to be Repeated

OS:YearDescription,
  {dc61c512-45d1-4989-9433-d7b2d7e72a86}, !- Handle
  ,                                       !- Calendar Year
  Sunday;                                 !- Day of Week for Start Day

OS:Surface,
  {1f56496f-7c9c-4b39-8d4b-bc0ec99baa9c}, !- Handle
  Dining_Floor,                           !- Name
  Floor,                                  !- Surface Type
  ,                                       !- Construction Name
  {227a53df-c60f-4814-9986-7262c5ebf0b0}, !- Space Name
  Ground,                                 !- Outside Boundary Condition
  ,                                       !- Outside Boundary Condition Object
  NoSun,                                  !- Sun Exposure
  NoWind,                                 !- Wind Exposure
  ,                                       !- View Factor to Ground
  ,                                       !- Number of Vertices
  15.2428, 7.6214, 0,                     !- X,Y,Z Vertex 1 {m}
  15.2428, 0, 0,                          !- X,Y,Z Vertex 2 {m}
  0, 0, 0,                                !- X,Y,Z Vertex 3 {m}
  0, 7.6214, 0;                           !- X,Y,Z Vertex 4 {m}

OS:Surface,
  {239e359d-98c3-4ad3-909e-507d9cdc12fd}, !- Handle
  Dining_Ceiling,                         !- Name
  RoofCeiling,                            !- Surface Type
  ,                                       !- Construction Name
  {227a53df-c60f-4814-9986-7262c5ebf0b0}, !- Space Name
  Surface,                                !- Outside Boundary Condition
  {dbb61c21-e373-4c96-b80c-9293e6b4e972}, !- Outside Boundary Condition Object
  NoSun,                                  !- Sun Exposure
  NoWind,                                 !- Wind Exposure
  ,                                       !- View Factor to Ground
  ,                                       !- Number of Vertices
  15.2428, 0, 3.0488,                     !- X,Y,Z Vertex 1 {m}
  15.2428, 7.6214, 3.0488,                !- X,Y,Z Vertex 2 {m}
  0, 7.6214, 3.0488,                      !- X,Y,Z Vertex 3 {m}
  0, 0, 3.0488;                           !- X,Y,Z Vertex 4 {m}

OS:Surface,
  {98c3e342-d789-4d0e-9013-b5820ea58e80}, !- Handle
  Kitchen_Wall_West,                      !- Name
  Wall,                                   !- Surface Type
  ,                                       !- Construction Name
  {ca5649c5-cc8d-4b71-9941-b893da8ba6a1}, !- Space Name
  Outdoors,                               !- Outside Boundary Condition
  ,                                       !- Outside Boundary Condition Object
  SunExposed,                             !- Sun Exposure
  WindExposed,                            !- Wind Exposure
  ,                                       !- View Factor to Ground
  ,                                       !- Number of Vertices
  0, 15.2428, 3.0488,                     !- X,Y,Z Vertex 1 {m}
  0, 15.2428, 0,                          !- X,Y,Z Vertex 2 {m}
  0, 7.6214, 0,                           !- X,Y,Z Vertex 3 {m}
  0, 7.6214, 3.0488;                      !- X,Y,Z Vertex 4 {m}

OS:Surface,
  {95c0bfd9-6c14-4700-b916-3da2bdc3ec3d}, !- Handle
  west-roof,                              !- Name
  RoofCeiling,                            !- Surface Type
  ,                                       !- Construction Name
  {597594ef-5c7d-4f39-88b9-691ef2d8a8eb}, !- Space Name
  Outdoors,                               !- Outside Boundary Condition
  ,                                       !- Outside Boundary Condition Object
  SunExposed,                             !- Sun Exposure
  WindExposed,                            !- Wind Exposure
  ,                                       !- View Factor to Ground
  ,                                       !- Number of Vertices
  2.5405, 7.6214, 2.5405,                 !- X,Y,Z Vertex 1 {m}
  0, 15.2428, 0,                          !- X,Y,Z Vertex 2 {m}
  0, 0, 0;                                !- X,Y,Z Vertex 3 {m}

OS:Output:Meter,
  {8cd39ffc-0617-4655-b1c8-2c94a0ab3309}, !- Handle
  Electricity:Facility,                   !- Name
  hourly,                                 !- Reporting Frequency
  True,                                   !- Meter File Only
  False;                                  !- Cumulative

OS:Timestep,
  {9063a0cc-5920-4b09-9aec-904158ca50a0}, !- Handle
  6;                                      !- Number of Timesteps per Hour

OS:Surface,
  {0ce33173-4d99-4659-a3cf-f4e2f4507992}, !- Handle
  Dining_Wall_East,                       !- Name
  Wall,                                   !- Surface Type
  ,                                       !- Construction Name
  {227a53df-c60f-4814-9986-7262c5ebf0b0}, !- Space Name
  Outdoors,                               !- Outside Boundary Condition
  ,                                       !- Outside Boundary Condition Object
  SunExposed,                             !- Sun Exposure
  WindExposed,                            !- Wind Exposure
  ,                                       !- View Factor to Ground
  ,                                       !- Number of Vertices
  15.2428, 0, 3.0488,                     !- X,Y,Z Vertex 1 {m}
  15.2428, 0, 0,                          !- X,Y,Z Vertex 2 {m}
  15.2428, 7.6214, 0,                     !- X,Y,Z Vertex 3 {m}
  15.2428, 7.6214, 3.0488;                !- X,Y,Z Vertex 4 {m}

OS:Surface,
  {dbb61c21-e373-4c96-b80c-9293e6b4e972}, !- Handle
  attic-floor-dinning,                    !- Name
  Floor,                                  !- Surface Type
  ,                                       !- Construction Name
  {597594ef-5c7d-4f39-88b9-691ef2d8a8eb}, !- Space Name
  Surface,                                !- Outside Boundary Condition
  {239e359d-98c3-4ad3-909e-507d9cdc12fd}, !- Outside Boundary Condition Object
  NoSun,                                  !- Sun Exposure
  NoWind,                                 !- Wind Exposure
  ,                                       !- View Factor to Ground
  ,                                       !- Number of Vertices
  15.2428, 7.6214, 0,                     !- X,Y,Z Vertex 1 {m}
  15.2428, 0, 0,                          !- X,Y,Z Vertex 2 {m}
  0, 0, 0,                                !- X,Y,Z Vertex 3 {m}
  0, 7.6214, 0;                           !- X,Y,Z Vertex 4 {m}

OS:ShadowCalculation,
  {5f7c5ce5-d484-4da4-b18e-8193917ac323}, !- Handle
  PolygonClipping,                        !- Shading Calculation Method
  ,                                       !- Shading Calculation Update Frequency Method
  30,                                     !- Shading Calculation Update Frequency
  15000,                                  !- Maximum Figures in Shadow Overlap Calculations
  ,                                       !- Polygon Clipping Algorithm
  512,                                    !- Pixel Counting Resolution
  ,                                       !- Sky Diffuse Modeling Algorithm
  No,                                     !- Output External Shading Calculation Results
  No,                                     !- Disable Self-Shading Within Shading Zone Groups
  No;                                     !- Disable Self-Shading From Shading Zone Groups to Other Zones

OS:Surface,
  {39f6e2e0-5e68-4d9f-a51b-93c992967b4d}, !- Handle
  Kitchen_Ceiling,                        !- Name
  RoofCeiling,                            !- Surface Type
  ,                                       !- Construction Name
  {ca5649c5-cc8d-4b71-9941-b893da8ba6a1}, !- Space Name
  Surface,                                !- Outside Boundary Condition
  {4586d3be-ec21-4c3f-bdb8-2e7cc621e90a}, !- Outside Boundary Condition Object
  NoSun,                                  !- Sun Exposure
  NoWind,                                 !- Wind Exposure
  ,                                       !- View Factor to Ground
  ,                                       !- Number of Vertices
  15.2428, 7.6214, 3.0488,                !- X,Y,Z Vertex 1 {m}
  15.2428, 15.2428, 3.0488,               !- X,Y,Z Vertex 2 {m}
  0, 15.2428, 3.0488,                     !- X,Y,Z Vertex 3 {m}
  0, 7.6214, 3.0488;                      !- X,Y,Z Vertex 4 {m}

OS:Surface,
  {29502d46-e7f0-4ace-80f2-bf8c5f22399e}, !- Handle
  Kitchen_Wall_North,                     !- Name
  Wall,                                   !- Surface Type
  ,                                       !- Construction Name
  {ca5649c5-cc8d-4b71-9941-b893da8ba6a1}, !- Space Name
  Outdoors,                               !- Outside Boundary Condition
  ,                                       !- Outside Boundary Condition Object
  SunExposed,                             !- Sun Exposure
  WindExposed,                            !- Wind Exposure
  ,                                       !- View Factor to Ground
  ,                                       !- Number of Vertices
  15.2428, 15.2428, 3.0488,               !- X,Y,Z Vertex 1 {m}
  15.2428, 15.2428, 0,                    !- X,Y,Z Vertex 2 {m}
  0, 15.2428, 0,                          !- X,Y,Z Vertex 3 {m}
  0, 15.2428, 3.0488;                     !- X,Y,Z Vertex 4 {m}

OS:Surface,
  {aeca9f74-baf7-4879-9ec6-6b786bd73254}, !- Handle
  Dining_Wall_North,                      !- Name
  Wall,                                   !- Surface Type
  ,                                       !- Construction Name
  {227a53df-c60f-4814-9986-7262c5ebf0b0}, !- Space Name
  Surface,                                !- Outside Boundary Condition
  {2636ff31-c556-495c-b12e-5d6feddbc9cf}, !- Outside Boundary Condition Object
  NoSun,                                  !- Sun Exposure
  NoWind,                                 !- Wind Exposure
  ,                                       !- View Factor to Ground
  ,                                       !- Number of Vertices
  15.2428, 7.6214, 3.0488,                !- X,Y,Z Vertex 1 {m}
  15.2428, 7.6214, 0,                     !- X,Y,Z Vertex 2 {m}
  0, 7.6214, 0,                           !- X,Y,Z Vertex 3 {m}
  0, 7.6214, 3.0488;                      !- X,Y,Z Vertex 4 {m}

OS:Surface,
  {4586d3be-ec21-4c3f-bdb8-2e7cc621e90a}, !- Handle
  attic-floor-kitchen,                    !- Name
  Floor,                                  !- Surface Type
  ,                                       !- Construction Name
  {597594ef-5c7d-4f39-88b9-691ef2d8a8eb}, !- Space Name
  Surface,                                !- Outside Boundary Condition
  {39f6e2e0-5e68-4d9f-a51b-93c992967b4d}, !- Outside Boundary Condition Object
  NoSun,                                  !- Sun Exposure
  NoWind,                                 !- Wind Exposure
  ,                                       !- View Factor to Ground
  ,                                       !- Number of Vertices
  15.2428, 15.2428, 0,                    !- X,Y,Z Vertex 1 {m}
  15.2428, 7.6214, 0,                     !- X,Y,Z Vertex 2 {m}
  0, 7.6214, 0,                           !- X,Y,Z Vertex 3 {m}
  0, 15.2428, 0;                          !- X,Y,Z Vertex 4 {m}

OS:Output:Meter,
  {d2db413f-1af6-4e7f-9109-45d9423b7ea7}, !- Handle
  ElectricityNet:Facility,                !- Name
  hourly,                                 !- Reporting Frequency
  True,                                   !- Meter File Only
  False;                                  !- Cumulative

OS:Surface,
  {75eb92db-8917-4314-8e60-e78636e3d97c}, !- Handle
  south-roof,                             !- Name
  RoofCeiling,                            !- Surface Type
  ,                                       !- Construction Name
  {597594ef-5c7d-4f39-88b9-691ef2d8a8eb}, !- Space Name
  Outdoors,                               !- Outside Boundary Condition
  ,                                       !- Outside Boundary Condition Object
  SunExposed,                             !- Sun Exposure
  WindExposed,                            !- Wind Exposure
  ,                                       !- View Factor to Ground
  ,                                       !- Number of Vertices
  2.5405, 7.6214, 2.5405,                 !- X,Y,Z Vertex 1 {m}
  3.99095441431607e-034, -5.70727828200584e-017, 1.7121610194245e-016, !- X,Y,Z Vertex 2 {m}
  15.2428, -4.64136290711368e-017, 1.39239060264815e-016, !- X,Y,Z Vertex 3 {m}
  12.7023, 7.6214, 2.5405;                !- X,Y,Z Vertex 4 {m}

OS:ConvergenceLimits,
  {5a5a7ade-f107-42d1-a20e-a6392141cf91}, !- Handle
  1,                                      !- Minimum System Timestep {minutes}
  20;                                     !- Maximum HVAC Iterations

OS:Facility,
  {693dbb2e-41ae-48dc-a6f3-a7089dd1c0fe}; !- Handle

OS:BuildingStory,
  {123b80d5-dd69-416a-98e2-41c71a91f505}, !- Handle
  Building Story 1,                       !- Name
  0,                                      !- Nominal Z Coordinate {m}
  ,                                       !- Nominal Floor to Floor Height {m}
  ,                                       !- Default Construction Set Name
  ,                                       !- Default Schedule Set Name
  ;                                       !- Group Rendering Name

OS:BuildingStory,
  {5090125b-0d59-44b5-bedc-ceeedd108d8d}, !- Handle
  Building Story 2,                       !- Name
  3.0488,                                 !- Nominal Z Coordinate {m}
  ,                                       !- Nominal Floor to Floor Height {m}
  ,                                       !- Default Construction Set Name
  ,                                       !- Default Schedule Set Name
  ;                                       !- Group Rendering Name

OS:WeatherFile,
  {82f2e995-2e59-4a20-8410-c14b5a5a72f4}, !- Handle
  Corner.Brook,                           !- City
  NL,                                     !- State Province Region
  CAN,                                    !- Country
  NRC2022v1,                              !- Data Source
  719730,                                 !- WMO Number
  48.93,                                  !- Latitude {deg}
  -57.92,                                 !- Longitude {deg}
  -4,                                     !- Time Zone {hr}
  151.8,                                  !- Elevation {m}
  /var/gems/openstudio-standards/data/weather/CAN_NL_Corner.Brook-TMY_GW0.0.epw, !- Url
  DA22FE95;                               !- Checksum

OS:Site:WaterMainsTemperature,
  {55cdfa98-f42d-41d3-b471-4f66016078f6}, !- Handle
  Correlation,                            !- Calculation Method
  ,                                       !- Temperature Schedule Name
  5.21666666666667,                       !- Annual Average Outdoor Air Temperature {C}
  24.1;                                   !- Maximum Difference In Monthly Average Outdoor Air Temperatures {deltaC}

OS:Site:GroundTemperature:BuildingSurface,
  {e060c27c-510e-40a0-82fd-efa8e25cdf70}, !- Handle
  19.527,                                 !- January Ground Temperature {C}
  19.502,                                 !- February Ground Temperature {C}
  19.536,                                 !- March Ground Temperature {C}
  19.598,                                 !- April Ground Temperature {C}
  20.002,                                 !- May Ground Temperature {C}
  21.64,                                  !- June Ground Temperature {C}
  22.225,                                 !- July Ground Temperature {C}
  22.375,                                 !- August Ground Temperature {C}
  21.449,                                 !- September Ground Temperature {C}
  20.121,                                 !- October Ground Temperature {C}
  19.802,                                 !- November Ground Temperature {C}
  19.633;                                 !- December Ground Temperature {C}

OS:SpaceType,
  {a24f27e0-d86b-4774-9632-e7e54d33dd6a}, !- Handle
  Space Function - undefined -,           !- Name
  ,                                       !- Default Construction Set Name
  {cf41d67b-a032-4cc4-aa30-e0471c315474}, !- Default Schedule Set Name
  {e295162d-9d9a-4ac5-9285-6af63fa73918}, !- Group Rendering Name
  {f447071e-9f31-45d3-b356-6643fe25a916}, !- Design Specification Outdoor Air Object Name
  ,                                       !- Standards Template
  Space Function,                         !- Standards Building Type
  - undefined -;                          !- Standards Space Type

OS:Rendering:Color,