
OS:Version,
  {d24fec88-62f7-4733-8c5e-9af634e89107}, !- Handle
  3.2.1;                                  !- Version Identifier

OS:ScheduleTypeLimits,
  {072ca6eb-d337-4823-baba-6ee47025e57f}, !- Handle
  Always On Discrete Limits,              !- Name
  0,                                      !- Lower Limit Value
  1,                                      !- Upper Limit Value
  Discrete,                               !- Numeric Type
  Availability;                           !- Unit Type

OS:Timestep,
  {b0fa043b-3e91-4705-b798-a26bbea47620}, !- Handle
  6;                                      !- Number of Timesteps per Hour

OS:YearDescription,
  {2759562d-6e36-40de-aa86-5c2198a9d34c}, !- Handle
  ,                                       !- Calendar Year
  Sunday;                                 !- Day of Week for Start Day

OS:Connection,
  {5bae42aa-910b-413c-9bf1-37c522919800}, !- Handle
  ,                                       !- Source Object
  11,                                     !- Outlet Port
  ,                                       !- Target Object
  2;                                      !- Inlet Port

OS:Space,
  {c9532ad7-da0a-45f9-96ed-ea62ab17db64}, !- Handle
  Core_mid,                               !- Name
  {cbc1800d-3058-4bca-9be8-d37e6a76ff55}, !- Space Type Name
  ,                                       !- Default Construction Set Name
  ,                                       !- Default Schedule Set Name
  -0,                                     !- Direction of Relative North {deg}
  5.4876,                                 !- X Origin {m}
  4.5732,                                 !- Y Origin {m}
  19.816,                                 !- Z Origin {m}
  {90e8f18c-4e90-4136-9df3-52f333e3fb0e}, !- Building Story Name
  {ade02ac4-e071-4a19-bff2-45a27379f131}, !- Thermal Zone Name
  Yes;                                    !- Part of Total Floor Area

OS:Surface,
  {503cbf06-b696-47b8-902a-5f4f090ce948}, !- Handle
  DataCenter_top_ZN_6_Floor,              !- Name
  Floor,                                  !- Surface Type
  {d19872ef-3cef-43cb-9a4c-a97f961ccda6}, !- Construction Name
  {ad63a923-b138-4343-b031-0f686a9aa91f}, !- Space Name
  Adiabatic,                              !- Outside Boundary Condition
  ,                                       !- Outside Boundary Condition Object
  NoSun,                                  !- Sun Exposure
  NoWind,                                 !- Wind Exposure
  0,                                      !- View Factor to Ground
  ,                                       !- Number of Vertices
  0.9144, 39.5918, 0,                     !- X,Y,Z Vertex 1 {m}
  0.9144, 0, 0,                           !- X,Y,Z Vertex 2 {m}
  0, 0, 0,                                !- X,Y,Z Vertex 3 {m}
  0, 39.5918, 0;                          !- X,Y,Z Vertex 4 {m}

OS:Connection,
  {32a16ddd-3d4f-4c9b-b883-8d736da632a9}, !- Handle
  ,                                       !- Source Object
  11,                                     !- Outlet Port
  ,                                       !- Target Object
  2;                                      !- Inlet Port

OS:Space,
  {ad63a923-b138-4343-b031-0f686a9aa91f}, !- Handle
  DataCenter_top_ZN_6,                    !- Name
  {cbc1800d-3058-4bca-9be8-d37e6a76ff55}, !- Space Type Name
  ,                                       !- Default Construction Set Name
  ,                                       !- Default Schedule Set Name
  -0,                                     !- Direction of Relative North {deg}
  4.5732,                                 !- X Origin {m}
  4.5732,                                 !- Y Origin {m}
  43.5952,                                !- Z Origin {m}
  {f4d26ab6-6069-4f95-a4bb-2505ee54b65c}, !- Building Story Name
  {e3af213b-1e04-49c0-bc82-dbe0dac29111}, !- Thermal Zone Name
  ,                                       !- Part of Total Floor Area
  ;                                       !- Design Specification Outdoor Air Object Name

OS:Surface,
  {9f946c4f-a94d-4946-87a0-204ee59b1052}, !- Handle
  Perimeter_mid_ZN_2_Wall_East,           !- Name
  Wall,                                   !- Surface Type
  ,                                       !- Construction Name
  {7e340c82-5b29-41c5-9ccd-9a28338e4ae1}, !- Space Name
  Outdoors,                               !- Outside Boundary Condition
  ,                                       !- Outside Boundary Condition Object
  SunExposed,                             !- Sun Exposure
  WindExposed,                            !- Wind Exposure
  ,                                       !- View Factor to Ground
  ,                                       !- Number of Vertices
  4.5732, 0, 2.744,                       !- X,Y,Z Vertex 1 {m}
  4.5732, 0, 0,                           !- X,Y,Z Vertex 2 {m}
  4.5732, 48.7381, 0,                     !- X,Y,Z Vertex 3 {m}
  4.5732, 48.7381, 2.744;                 !- X,Y,Z Vertex 4 {m}

OS:Connection,
  {645d04e0-4f17-4ec0-b149-bb89a6ef1e82}, !- Handle
  ,                                       !- Source Object
  11,                                     !- Outlet Port
  ,                                       !- Target Object
  2;                                      !- Inlet Port

OS:Space,
  {7e340c82-5b29-41c5-9ccd-9a28338e4ae1}, !- Handle
  Perimeter_mid_ZN_2,                     !- Name
  {cbc1800d-3058-4bca-9be8-d37e6a76ff55}, !- Space Type Name
  ,                                       !- Default Construction Set Name
  ,                                       !- Default Schedule Set Name
  -0,                                     !- Direction of Relative North {deg}
  68.534,                                 !- X Origin {m}
  0,                                      !- Y Origin {m}
  19.816,                                 !- Z Origin {m}
  {90e8f18c-4e90-4136-9df3-52f333e3fb0e}, !- Building Story Name
  {fdb190f8-9dc0-4741-85da-7d0348efffec}, !- Thermal Zone Name
  Yes;                                    !- Part of Total Floor Area

OS:Surface,
  {370e7613-b020-4b6d-9a06-8f9b943f6665}, !- Handle
  Perimeter_mid_ZN_1_Ceiling,             !- Name
  RoofCeiling,                            !- Surface Type
  ,                                       !- Construction Name
  {fbcda114-4a6f-4d17-ba38-7d71c7b8bbff}, !- Space Name
  Surface,                                !- Outside Boundary Condition
  {9cd5a643-1952-4351-bac4-6ce973890b8f}, !- Outside Boundary Condition Object
  NoSun,                                  !- Sun Exposure
  NoWind,                                 !- Wind Exposure
  ,                                       !- View Factor to Ground
  ,                                       !- Number of Vertices
  73.1072, 0, 2.744,                      !- X,Y,Z Vertex 1 {m}
  68.534, 4.5732, 2.744,                  !- X,Y,Z Vertex 2 {m}
  4.5732, 4.5732, 2.744,                  !- X,Y,Z Vertex 3 {m}
  0, 0, 2.744;                            !- X,Y,Z Vertex 4 {m}

OS:Connection,
  {7abf3751-f702-4fe6-ae5f-b74b2eb0bca6}, !- Handle
  ,                                       !- Source Object
  11,                                     !- Outlet Port
  ,                                       !- Target Object
  2;                                      !- Inlet Port

OS:Space,
  {fbcda114-4a6f-4d17-ba38-7d71c7b8bbff}, !- Handle
  Perimeter_mid_ZN_1,                     !- Name
  {cbc1800d-3058-4bca-9be8-d37e6a76ff55}, !- Space Type Name
  ,                                       !- Default Construction Set Name
  ,                                       !- Default Schedule Set Name
  -0,                                     !- Direction of Relative North {deg}
  0,                                      !- X Origin {m}
  0,                                      !- Y Origin {m}
  19.816,                                 !- Z Origin {m}
  {90e8f18c-4e90-4136-9df3-52f333e3fb0e}, !- Building Story Name
  {7dd53df0-436c-4b27-a3f2-7ef3f04c7832}, !- Thermal Zone Name
  Yes;                                    !- Part of Total Floor Area

OS:Connection,
  {9393ffb6-9c9d-4309-b9b2-f354ef4e756c}, !- Handle
  ,                                       !- Source Object
  11,                                     !- Outlet Port
  ,                                       !- Target Object
  2;                                      !- Inlet Port

OS:Space,
  {d6fae17a-2423-4ae7-b189-02f65601f395}, !- Handle
  MidFloor_Plenum,                        !- Name
  {89f0d366-eba1-4d30-847b-e0e91684e056}, !- Space Type Name
  ,                                       !- Default Construction Set Name
  ,                                       !- Default Schedule Set Name
  -0,                                     !- Direction of Relative North {deg}
  0,                                      !- X Origin {m}
  0,                                      !- Y Origin {m}
  22.56,                                  !- Z Origin {m}
  {90e8f18c-4e90-4136-9df3-52f333e3fb0e}, !- Building Story Name
  {ce308249-a90f-4994-aa91-78cb5604e8db}, !- Thermal Zone Name
  No,                                     !- Part of Total Floor Area
  ,                                       !- Design Specification Outdoor Air Object Name
  ;                                       !- Building Unit Name

OS:Surface,
  {9cd5a643-1952-4351-bac4-6ce973890b8f}, !- Handle
  Perimeter_mid_ZN_1_Ceiling Reversed,    !- Name
  Floor,                                  !- Surface Type
  ,                                       !- Construction Name
  {d6fae17a-2423-4ae7-b189-02f65601f395}, !- Space Name
  Surface,                                !- Outside Boundary Condition
  {370e7613-b020-4b6d-9a06-8f9b943f6665}, !- Outside Boundary Condition Object
  NoSun,                                  !- Sun Exposure
  NoWind,                                 !- Wind Exposure
  ,                                       !- View Factor to Ground
  ,                                       !- Number of Vertices
  68.534, 4.5732, 0,                      !- X,Y,Z Vertex 1 {m}
  73.1072, 0, 0,                          !- X,Y,Z Vertex 2 {m}
  0, 0, 0,                                !- X,Y,Z Vertex 3 {m}
  4.5732, 4.5732, 0;                      !- X,Y,Z Vertex 4 {m}

OS:Surface,
  {9fc7900b-60c5-4318-be68-c2a994c9c978}, !- Handle
  DataCenter_mid_ZN_6_Wall_West,          !- Name
  Wall,                                   !- Surface Type
  ,                                       !- Construction Name
  {2c6ae4f5-d65e-4636-8802-7d13d7260722}, !- Space Name
  Surface,                                !- Outside Boundary Condition
  {82f55c5e-745b-4c15-a423-60bddbf56c5a}, !- Outside Boundary Condition Object
  NoSun,                                  !- Sun Exposure
  NoWind,                                 !- Wind Exposure
  0,                                      !- View Factor to Ground
  ,                                       !- Number of Vertices
  0, 39.5918, 2.744,                      !- X,Y,Z Vertex 1 {m}
  0, 39.5918, 0,                          !- X,Y,Z Vertex 2 {m}
  0, 0, 0,                                !- X,Y,Z Vertex 3 {m}
  0, 0, 2.744;                            !- X,Y,Z Vertex 4 {m}

OS:Connection,
  {9681051a-f3a5-4053-856c-37ade7c423f7}, !- Handle
  ,                                       !- Source Object
  11,                                     !- Outlet Port
  ,                                       !- Target Object
  2;                                      !- Inlet Port

OS:Space,
  {2c6ae4f5-d65e-4636-8802-7d13d7260722}, !- Handle
  DataCenter_mid_ZN_6,                    !- Name
  {cbc1800d-3058-4bca-9be8-d37e6a76ff55}, !- Space Type Name
  ,                                       !- Default Construction Set Name
  ,                                       !- Default Schedule Set Name
  -0,                                     !- Direction of Relative North {deg}
  4.5732,                                 !- X Origin {m}
  4.5732,                                 !- Y Origin {m}
  19.816,                                 !- Z Origin {m}
  {90e8f18c-4e90-4136-9df3-52f333e3fb0e}, !- Building Story Name
  {913b13a6-70a3-4b7d-bbc8-00cfe67b3b5c}; !- Thermal Zone Name

OS:Connection,
  {77b940a1-bfdd-4414-ad3c-632f18882d3f}, !- Handle
  ,                                       !- Source Object
  11,                                     !- Outlet Port
  ,                                       !- Target Object
  2;                                      !- Inlet Port

OS:Space,
  {252d5491-4adf-40c7-b2c2-5f3c366963cc}, !- Handle
  Core_bottom,                            !- Name
  {cbc1800d-3058-4bca-9be8-d37e6a76ff55}, !- Space Type Name
  ,                                       !- Default Construction Set Name
  ,                                       !- Default Schedule Set Name
  -0,                                     !- Direction of Relative North {deg}
  5.4876,                                 !- X Origin {m}
  4.5732,                                 !- Y Origin {m}
  0,                                      !- Z Origin {m}
  {1bf14578-5317-4bb7-bb78-67bfc4cef2af}, !- Building Story Name
  {b55fa6c6-04b6-4cac-810b-88c8ca96ad64}, !- Thermal Zone Name
  Yes;                                    !- Part of Total Floor Area

OS:Surface,
  {3fc96f62-dfdc-4573-82ee-671168d1232f}, !- Handle
  DataCenter_basement_ZN_6_Ceiling-Core_bot_ZN_5-PPAutoCreateOther, !- Name
  Floor,                                  !- Surface Type
  ,                                       !- Construction Name
  {252d5491-4adf-40c7-b2c2-5f3c366963cc}, !- Space Name
  Surface,                                !- Outside Boundary Condition
  {9c4cd6ed-9920-48ea-acd5-53d88fdbc4ec}, !- Outside Boundary Condition Object
  NoSun,                                  !- Sun Exposure
  NoWind,                                 !- Wind Exposure
  0,                                      !- View Factor to Ground
  ,                                       !- Number of Vertices
  10.5906, 39.5918, 0,                    !- X,Y,Z Vertex 1 {m}
  10.5906, 0, 0,                          !- X,Y,Z Vertex 2 {m}
  0, 0, 0,                                !- X,Y,Z Vertex 3 {m}
  0, 39.5918, 0;                          !- X,Y,Z Vertex 4 {m}

OS:Surface,
  {8cee6b0e-b327-4162-99af-bdd3fad8a288}, !- Handle
  Core_top_ZN_5_Wall_North-PPAutoCreateOther, !- Name
  Wall,                                   !- Surface Type
  ,                                       !- Construction Name
  {bf3e28c0-5c36-4ba7-8f6b-40c5c095b5f0}, !- Space Name
  Surface,                                !- Outside Boundary Condition
  {72a13a95-e4f4-4099-bbc4-a7b9a3d27dfa}, !- Outside Boundary Condition Object
  NoSun,                                  !- Sun Exposure
  NoWind,                                 !- Wind Exposure
  ,                                       !- View Factor to Ground
  ,                                       !- Number of Vertices
  5.4876, 0, 2.744,                       !- X,Y,Z Vertex 1 {m}
  5.4876, 0, 0,                           !- X,Y,Z Vertex 2 {m}
  68.534, 0, 0,                           !- X,Y,Z Vertex 3 {m}
  68.534, 0, 2.744;                       !- X,Y,Z Vertex 4 {m}

OS:Connection,
  {0e19e1d7-0299-4b30-b129-a244565ae369}, !- Handle
  ,                                       !- Source Object
  11,                                     !- Outlet Port
  ,                                       !- Target Object
  2;                                      !- Inlet Port

OS:Space,
  {bf3e28c0-5c36-4ba7-8f6b-40c5c095b5f0}, !- Handle
  Perimeter_top_ZN_3,                     !- Name
  {cbc1800d-3058-4bca-9be8-d37e6a76ff55}, !- Space Type Name
  ,                                       !- Default Construction Set Name
  ,                                       !- Default Schedule Set Name
  -0,                                     !- Direction of Relative North {deg}
  -7.21911419532262e-16,                  !- X Origin {m}
  44.165,                                 !- Y Origin {m}
  43.5952,                                !- Z Origin {m}
  {f4d26ab6-6069-4f95-a4bb-2505ee54b65c}, !- Building Story Name
  {ec046611-03a6-49e6-a2d8-6ace90346151}, !- Thermal Zone Name
  Yes;                                    !- Part of Total Floor Area

OS:Surface,
  {df5f6311-1983-4839-adb4-7ba4f4e7bbb8}, !- Handle
  Core_top_ZN_5_Wall_West,                !- Name
  Wall,                                   !- Surface Type
  ,                                       !- Construction Name
  {c37fd6ec-d4bc-468a-8c95-3ae276d0b5cb}, !- Space Name
  Surface,                                !- Outside Boundary Condition
  {3a8bc761-afcd-446c-955c-8e3f0810fe12}, !- Outside Boundary Condition Object
  NoSun,                                  !- Sun Exposure
  NoWind,                                 !- Wind Exposure
  ,                                       !- View Factor to Ground
  ,                                       !- Number of Vertices
  0, 39.5918, 2.744,                      !- X,Y,Z Vertex 1 {m}
  0, 39.5918, 0,                          !- X,Y,Z Vertex 2 {m}
  0, 0, 0,                                !- X,Y,Z Vertex 3 {m}
  0, 0, 2.744;                            !- X,Y,Z Vertex 4 {m}

OS:Connection,
  {8afa0a8b-ee8f-4b3c-8e8f-0ca3fc7dde2f}, !- Handle
  ,                                       !- Source Object
  11,                                     !- Outlet Port
  ,                                       !- Target Object
  2;                                      !- Inlet Port

OS:Space,
  {c37fd6ec-d4bc-468a-8c95-3ae276d0b5cb}, !- Handle
  Core_top,                               !- Name
  {cbc1800d-3058-4bca-9be8-d37e6a76ff55}, !- Space Type Name
  ,                                       !- Default Construction Set Name
  ,                                       !- Default Schedule Set Name
  -0,                                     !- Direction of Relative North {deg}
  5.4876,                                 !- X Origin {m}
  4.5732,                                 !- Y Origin {m}
  43.5952,                                !- Z Origin {m}
  {f4d26ab6-6069-4f95-a4bb-2505ee54b65c}, !- Building Story Name
  {87dd040d-2b0e-433f-84b2-25a4ee1c01d1}, !- Thermal Zone Name
  Yes;                                    !- Part of Total Floor Area

OS:Surface,
  {2faf7f65-dc91-4a4d-b0f7-4f072bfecaca}, !- Handle
  Perimeter_bot_ZN_3_Floor,               !- Name
  Floor,                                  !- Surface Type
  ,                                       !- Construction Name
  {d59c9de6-0b6a-4003-83b3-9abbb0fc11e6}, !- Space Name
  Surface,                                !- Outside Boundary Condition
  {32afe101-496f-43d3-9c79-7a7981fd2075}, !- Outside Boundary Condition Object
  NoSun,                                  !- Sun Exposure
  NoWind,                                 !- Wind Exposure
  ,                                       !- View Factor to Ground
  ,                                       !- Number of Vertices
  73.1072, 4.5731, 0,                     !- X,Y,Z Vertex 1 {m}
  68.534, 0, 0,                           !- X,Y,Z Vertex 2 {m}
  16.0782, 0, 0,                          !- X,Y,Z Vertex 3 {m}
  16.0782, 4.5731, 0;                     !- X,Y,Z Vertex 4 {m}

OS:Connection,
  {3d32fb73-f9c5-4bdc-a228-0ecec70b892f}, !- Handle
  ,                                       !- Source Object
  11,                                     !- Outlet Port
  ,                                       !- Target Object
  2;                                      !- Inlet Port

OS:Space,
  {d59c9de6-0b6a-4003-83b3-9abbb0fc11e6}, !- Handle
  Perimeter_bot_ZN_3,                     !- Name
  {cbc1800d-3058-4bca-9be8-d37e6a76ff55}, !- Space Type Name
  ,                                       !- Default Construction Set Name
  ,                                       !- Default Schedule Set Name
  -0,                                     !- Direction of Relative North {deg}
  0,                                      !- X Origin {m}
  44.165,                                 !- Y Origin {m}
  0,                                      !- Z Origin {m}
  {1bf14578-5317-4bb7-bb78-67bfc4cef2af}, !- Building Story Name
  {96a7606d-159d-4e88-83a4-4bd58bae0e5b}, !- Thermal Zone Name
  Yes;                                    !- Part of Total Floor Area

OS:Surface,
  {32149b41-adb7-4b41-ad95-c08825e09295}, !- Handle
  DataCenter_basement_ZN_6_Ceiling-Perimeter_bot_ZN_3-PPAutoCreateOther, !- Name
  Floor,                                  !- Surface Type
  ,                                       !- Construction Name
  {d59c9de6-0b6a-4003-83b3-9abbb0fc11e6}, !- Space Name
  Surface,                                !- Outside Boundary Condition
  {b1dd3025-42eb-41bc-bddf-fec82b89cafe}, !- Outside Boundary Condition Object
  NoSun,                                  !- Sun Exposure
  NoWind,                                 !- Wind Exposure
  0,                                      !- View Factor to Ground
  ,                                       !- Number of Vertices
  16.0782, 4.5731, 0,                     !- X,Y,Z Vertex 1 {m}
  16.0782, 0, 0,                          !- X,Y,Z Vertex 2 {m}
  4.5732, 0, 0,                           !- X,Y,Z Vertex 3 {m}
  0, 4.5731, 0;                           !- X,Y,Z Vertex 4 {m}

OS:Surface,
  {854b52f5-21fb-456c-860e-acb024deb99a}, !- Handle
  Basement_Wall_North,                    !- Name
  Wall,                                   !- Surface Type
  {ae0d97b0-439c-4711-807b-2bad217183e2}, !- Construction Name
  {5eccad29-dadd-43c0-a26c-31e00e7702be}, !- Space Name
  Foundation,                             !- Outside Boundary Condition
  {57d16ce5-c2d3-497e-ae4d-05aa88f61f0c}, !- Outside Boundary Condition Object
  NoSun,                                  !- Sun Exposure
  NoWind,                                 !- Wind Exposure
  0,                                      !- View Factor to Ground
  ,                                       !- Number of Vertices
  57.0278, 48.7381, 2.439,                !- X,Y,Z Vertex 1 {m}
  57.0278, 48.7381, 0,                    !- X,Y,Z Vertex 2 {m}
  0, 48.7381, 0,                          !- X,Y,Z Vertex 3 {m}
  0, 48.7381, 2.439;                      !- X,Y,Z Vertex 4 {m}

OS:Connection,
  {369ba6a2-fece-4fdc-b5da-a7d152f0d596}, !- Handle
  ,                                       !- Source Object
  11,                                     !- Outlet Port
  ,                                       !- Target Object
  2;                                      !- Inlet Port

OS:Space,
  {5eccad29-dadd-43c0-a26c-31e00e7702be}, !- Handle
  Basement,                               !- Name
  {5abd617c-0032-4623-94a3-ca7b89d01fa8}, !- Space Type Name
  ,                                       !- Default Construction Set Name
  ,                                       !- Default Schedule Set Name
  -0,                                     !- Direction of Relative North {deg}
  16.0794,                                !- X Origin {m}
  0,                                      !- Y Origin {m}
  -2.439,                                 !- Z Origin {m}
  {34fed859-ffd9-4b75-89d6-fc353a47f793}, !- Building Story Name
  {5d449a90-a733-49bb-a9ad-5cd67e044dce}, !- Thermal Zone Name
  Yes,                                    !- Part of Total Floor Area
  ,                                       !- Design Specification Outdoor Air Object Name
  ;                                       !- Building Unit Name

OS:Surface,
  {4ac6ea44-6fad-4d22-9242-726039b5b7bb}, !- Handle
  Perimeter_bot_ZN_4_Wall_South-PPAutoCreateOther, !- Name
  Wall,                                   !- Surface Type
  ,                                       !- Construction Name
  {2ff425f9-c1f4-46e4-a7b6-d29a1f6709fc}, !- Space Name
  Surface,                                !- Outside Boundary Condition
  {bc756393-0073-4502-8f6d-e63a633caa70}, !- Outside Boundary Condition Object
  NoSun,                                  !- Sun Exposure
  NoWind,                                 !- Wind Exposure
  ,                                       !- View Factor to Ground
  ,                                       !- Number of Vertices
  4.5732, 4.5732, 2.744,                  !- X,Y,Z Vertex 1 {m}
  4.5732, 4.5732, 0,                      !- X,Y,Z Vertex 2 {m}
  0, 0, 0,                                !- X,Y,Z Vertex 3 {m}
  0, 0, 2.744;                            !- X,Y,Z Vertex 4 {m}

OS:Connection,
  {bd5182e7-3f50-417b-ad69-5b0a16f52fb6}, !- Handle
  ,                                       !- Source Object
  11,                                     !- Outlet Port
  ,                                       !- Target Object
  2;                                      !- Inlet Port

OS:Space,
  {2ff425f9-c1f4-46e4-a7b6-d29a1f6709fc}, !- Handle
  Perimeter_bot_ZN_1,                     !- Name
  {cbc1800d-3058-4bca-9be8-d37e6a76ff55}, !- Space Type Name
  ,                                       !- Default Construction Set Name
  ,                                       !- Default Schedule Set Name
  -0,                                     !- Direction of Relative North {deg}
  0,                                      !- X Origin {m}
  0,                                      !- Y Origin {m}
  0,                                      !- Z Origin {m}
  {1bf14578-5317-4bb7-bb78-67bfc4cef2af}, !- Building Story Name
  {f6c5b850-e87f-447d-ba41-76a086686844}, !- Thermal Zone Name
  Yes,                                    !- Part of Total Floor Area
  ,                                       !- Design Specification Outdoor Air Object Name
  ;                                       !- Building Unit Name

OS:Surface,
  {348fd855-e97f-4cdb-a25d-8816afdd6950}, !- Handle
  Core_mid_ZN_5_Floor,                    !- Name
  Floor,                                  !- Surface Type
  {d19872ef-3cef-43cb-9a4c-a97f961ccda6}, !- Construction Name
  {c9532ad7-da0a-45f9-96ed-ea62ab17db64}, !- Space Name
  Adiabatic,                              !- Outside Boundary Condition
  ,                                       !- Outside Boundary Condition Object
  NoSun,                                  !- Sun Exposure
  NoWind,                                 !- Wind Exposure
  ,                                       !- View Factor to Ground
  ,                                       !- Number of Vertices
  63.0464, 39.5918, 0,                    !- X,Y,Z Vertex 1 {m}
  63.0464, 0, 0,                          !- X,Y,Z Vertex 2 {m}
  0, 0, 0,                                !- X,Y,Z Vertex 3 {m}
  0, 39.5918, 0;                          !- X,Y,Z Vertex 4 {m}

OS:Surface,
  {32afe101-496f-43d3-9c79-7a7981fd2075}, !- Handle
  Perimeter_bot_ZN_3_Floor-PPAutoCreateOther, !- Name
  RoofCeiling,                            !- Surface Type
  ,                                       !- Construction Name
  {5eccad29-dadd-43c0-a26c-31e00e7702be}, !- Space Name
  Surface,                                !- Outside Boundary Condition
  {2faf7f65-dc91-4a4d-b0f7-4f072bfecaca}, !- Outside Boundary Condition Object
  NoSun,                                  !- Sun Exposure
  NoWind,                                 !- Wind Exposure
  0,                                      !- View Factor to Ground
  ,                                       !- Number of Vertices
  52.4546, 44.165, 2.439,                 !- X,Y,Z Vertex 1 {m}
  57.0278, 48.7381, 2.439,                !- X,Y,Z Vertex 2 {m}
  0, 48.7381, 2.439,                      !- X,Y,Z Vertex 3 {m}
  0, 44.165, 2.439;                       !- X,Y,Z Vertex 4 {m}

OS:Surface,
  {0f1914d6-ade6-41b4-8464-a6e8d7b35a54}, !- Handle
  Perimeter_mid_ZN_3_Wall_North,          !- Name
  Wall,                                   !- Surface Type
  ,                                       !- Construction Name
  {acc296c2-5131-4947-b8bf-97711c02ad52}, !- Space Name
  Outdoors,                               !- Outside Boundary Condition
  ,                                       !- Outside Boundary Condition Object
  SunExposed,                             !- Sun Exposure
  WindExposed,                            !- Wind Exposure
  ,                                       !- View Factor to Ground
  ,                                       !- Number of Vertices
  73.1072, 4.5731, 2.744,                 !- X,Y,Z Vertex 1 {m}
  73.1072, 4.5731, 0,                     !- X,Y,Z Vertex 2 {m}
  0, 4.5731, 0,                           !- X,Y,Z Vertex 3 {m}
  0, 4.5731, 2.744;                       !- X,Y,Z Vertex 4 {m}

OS:Connection,
  {4bef2448-43f2-4269-a794-d6d35454c2e8}, !- Handle
  ,                                       !- Source Object
  11,                                     !- Outlet Port
  ,                                       !- Target Object
  2;                                      !- Inlet Port

OS:Space,
  {acc296c2-5131-4947-b8bf-97711c02ad52}, !- Handle
  Perimeter_mid_ZN_3,                     !- Name
  {cbc1800d-3058-4bca-9be8-d37e6a76ff55}, !- Space Type Name
  ,                                       !- Default Construction Set Name
  ,                                       !- Default Schedule Set Name
  -0,                                     !- Direction of Relative North {deg}
  0,                                      !- X Origin {m}
  44.165,                                 !- Y Origin {m}
  19.816,                                 !- Z Origin {m}
  {90e8f18c-4e90-4136-9df3-52f333e3fb0e}, !- Building Story Name
  {b55acc66-6f40-4ded-bc03-f5cb253d7185}, !- Thermal Zone Name
  Yes;                                    !- Part of Total Floor Area

OS:Surface,
  {ec5ced3e-87c0-415a-9ceb-d3bad643a050}, !- Handle
  Core_bot_ZN_5_Wall_South-PPAutoCreateOther, !- Name
  Wall,                                   !- Surface Type
  ,                                       !- Construction Name
  {2ff425f9-c1f4-46e4-a7b6-d29a1f6709fc}, !- Space Name
  Surface,                                !- Outside Boundary Condition
  {268a7e22-63ae-4eb3-86fe-ead5ac1ec3cb}, !- Outside Boundary Condition Object