
OS:Version,
  {7aad4672-2b6a-45ee-ad73-c16b6a24b391}, !- Handle
  3.2.1;                                  !- Version Identifier

OS:ScheduleTypeLimits,
  {2fdfb87c-0160-47c4-88d5-99c6d614f4cc}, !- Handle
  Always On Discrete Limits,              !- Name
  0,                                      !- Lower Limit Value
  1,                                      !- Upper Limit Value
  Discrete,                               !- Numeric Type
  Availability;                           !- Unit Type

OS:Timestep,
  {b0fa043b-3e91-4705-b798-a26bbea47620}, !- Handle
  6;                                      !- Number of Timesteps per Hour

OS:Surface,
  {e89a6184-fb6e-473a-b675-95973e6a9163}, !- Handle
  SMstore2_Wall_1,                        !- Name
  Wall,                                   !- Surface Type
  ,                                       !- Construction Name
  {5ea367b2-633e-43a1-9423-f1b770d2335d}, !- Space Name
  Outdoors,                               !- Outside Boundary Condition
  ,                                       !- Outside Boundary Condition Object
  SunExposed,                             !- Sun Exposure
  WindExposed,                            !- Wind Exposure
  ,                                       !- View Factor to Ground
  ,                                       !- Number of Vertices
  22.86, 0, 5.18,                         !- X,Y,Z Vertex 1 {m}
  22.86, 0, 0,                            !- X,Y,Z Vertex 2 {m}
  30.48, 0, 0,                            !- X,Y,Z Vertex 3 {m}
  30.48, 0, 5.18;                         !- X,Y,Z Vertex 4 {m}

OS:Connection,
  {637fe757-06d2-4128-a71e-ba7d3abdd7c4}, !- Handle
  ,                                       !- Source Object
  11,                                     !- Outlet Port
  ,                                       !- Target Object
  2;                                      !- Inlet Port

OS:Space,
  {5ea367b2-633e-43a1-9423-f1b770d2335d}, !- Handle
  SMstore2,                               !- Name
  {164a0580-ffbb-4880-aebc-aa07fcd5fec2}, !- Space Type Name
  ,                                       !- Default Construction Set Name
  ,                                       !- Default Schedule Set Name
  0,                                      !- Direction of Relative North {deg}
  0,                                      !- X Origin {m}
  0,                                      !- Y Origin {m}
  0,                                      !- Z Origin {m}
  {260f6357-91fd-4976-8e49-4c3b37d44115}, !- Building Story Name
  {a92ee63f-64f7-45a6-a679-7915e8527730}, !- Thermal Zone Name
  Yes,                                    !- Part of Total Floor Area
  ;                                       !- Design Specification Outdoor Air Object Name

OS:Surface,
  {c9d433d2-ebb4-4a63-8b65-cea8744af1e0}, !- Handle
  SMstore7_Wall_2,                        !- Name
  Wall,                                   !- Surface Type
  ,                                       !- Construction Name
  {89130de1-d42c-444e-801d-7d9adf3e04aa}, !- Space Name
  Surface,                                !- Outside Boundary Condition
  {3e0ead8c-d3e0-4261-be91-5aab3370e2b0}, !- Outside Boundary Condition Object
  NoSun,                                  !- Sun Exposure
  NoWind,                                 !- Wind Exposure
  ,                                       !- View Factor to Ground
  ,                                       !- Number of Vertices
  76.2, 22.86, 5.18,                      !- X,Y,Z Vertex 1 {m}
  76.2, 22.86, 0,                         !- X,Y,Z Vertex 2 {m}
  76.2, 0, 0,                             !- X,Y,Z Vertex 3 {m}
  76.2, 0, 5.18;                          !- X,Y,Z Vertex 4 {m}

OS:Connection,
  {34fa492d-0a22-458d-872a-499294398366}, !- Handle
  ,                                       !- Source Object
  11,                                     !- Outlet Port
  ,                                       !- Target Object
  2;                                      !- Inlet Port

OS:Space,
  {89130de1-d42c-444e-801d-7d9adf3e04aa}, !- Handle
  SMstore7,                               !- Name
  {164a0580-ffbb-4880-aebc-aa07fcd5fec2}, !- Space Type Name
  ,                                       !- Default Construction Set Name
  ,                                       !- Default Schedule Set Name
  0,                                      !- Direction of Relative North {deg}
  0,                                      !- X Origin {m}
  0,                                      !- Y Origin {m}
  0,                                      !- Z Origin {m}
  {260f6357-91fd-4976-8e49-4c3b37d44115}, !- Building Story Name
  {a92ee63f-64f7-45a6-a679-7915e8527730}, !- Thermal Zone Name
  Yes,                                    !- Part of Total Floor Area
  ;                                       !- Design Specification Outdoor Air Object Name

OS:Surface,
  {fb95905d-4253-4af1-a293-e7e070c3a65f}, !- Handle
  SMstore3_Floor,                         !- Name
  Floor,                                  !- Surface Type
  ,                                       !- Construction Name
  {ab4d5305-d428-465c-8009-bc4150273508}, !- Space Name
  Ground,                                 !- Outside Boundary Condition
  ,                                       !- Outside Boundary Condition Object
  NoSun,                                  !- Sun Exposure
  NoWind,                                 !- Wind Exposure
  ,                                       !- View Factor to Ground
  ,                                       !- Number of Vertices
  38.1, 22.86, 0,                         !- X,Y,Z Vertex 1 {m}
  38.1, 0, 0,                             !- X,Y,Z Vertex 2 {m}
  30.48, 0, 0,                            !- X,Y,Z Vertex 3 {m}
  30.48, 22.86, 0;                        !- X,Y,Z Vertex 4 {m}

OS:Connection,
  {f4190b94-559e-4147-855a-5243d0c11b0a}, !- Handle
  ,                                       !- Source Object
  11,                                     !- Outlet Port
  ,                                       !- Target Object
  2;                                      !- Inlet Port

OS:Space,
  {ab4d5305-d428-465c-8009-bc4150273508}, !- Handle
  SMstore3,                               !- Name
  {164a0580-ffbb-4880-aebc-aa07fcd5fec2}, !- Space Type Name
  ,                                       !- Default Construction Set Name
  ,                                       !- Default Schedule Set Name
  0,                                      !- Direction of Relative North {deg}
  0,                                      !- X Origin {m}
  0,                                      !- Y Origin {m}
  0,                                      !- Z Origin {m}
  {260f6357-91fd-4976-8e49-4c3b37d44115}, !- Building Story Name
  {a92ee63f-64f7-45a6-a679-7915e8527730}, !- Thermal Zone Name
  Yes,                                    !- Part of Total Floor Area
  ;                                       !- Design Specification Outdoor Air Object Name

OS:Connection,
  {daeb7ca2-b728-4478-8d3c-8ead3c27174d}, !- Handle
  ,                                       !- Source Object
  11,                                     !- Outlet Port
  ,                                       !- Target Object
  2;                                      !- Inlet Port

OS:Space,
  {6d54358c-9390-42e5-bc44-ebe58628f22c}, !- Handle
  SMstore1,                               !- Name
  {164a0580-ffbb-4880-aebc-aa07fcd5fec2}, !- Space Type Name
  ,                                       !- Default Construction Set Name
  ,                                       !- Default Schedule Set Name
  0,                                      !- Direction of Relative North {deg}
  0,                                      !- X Origin {m}
  0,                                      !- Y Origin {m}
  0,                                      !- Z Origin {m}
  {260f6357-91fd-4976-8e49-4c3b37d44115}, !- Building Story Name
  {a92ee63f-64f7-45a6-a679-7915e8527730}, !- Thermal Zone Name
  Yes,                                    !- Part of Total Floor Area
  ;                                       !- Design Specification Outdoor Air Object Name

OS:Connection,
  {2efd3352-1353-4c06-bd5c-fdf2f3cd5f18}, !- Handle
  ,                                       !- Source Object
  11,                                     !- Outlet Port
  ,                                       !- Target Object
  2;                                      !- Inlet Port

OS:Space,
  {4ab39cda-851f-4e81-b908-ae359b3e2c57}, !- Handle
  LGstore2,                               !- Name
  {164a0580-ffbb-4880-aebc-aa07fcd5fec2}, !- Space Type Name
  ,                                       !- Default Construction Set Name
  ,                                       !- Default Schedule Set Name
  0,                                      !- Direction of Relative North {deg}
  0,                                      !- X Origin {m}
  0,                                      !- Y Origin {m}
  0,                                      !- Z Origin {m}
  {260f6357-91fd-4976-8e49-4c3b37d44115}, !- Building Story Name
  {a92ee63f-64f7-45a6-a679-7915e8527730}, !- Thermal Zone Name
  Yes,                                    !- Part of Total Floor Area
  ;                                       !- Design Specification Outdoor Air Object Name

OS:Surface,
  {01fd49f6-4fce-4ecf-85b7-dc00716b7a6a}, !- Handle
  SMstore1_Wall_1,                        !- Name
  Wall,                                   !- Surface Type
  ,                                       !- Construction Name
  {6d54358c-9390-42e5-bc44-ebe58628f22c}, !- Space Name
  Outdoors,                               !- Outside Boundary Condition
  ,                                       !- Outside Boundary Condition Object
  SunExposed,                             !- Sun Exposure
  WindExposed,                            !- Wind Exposure
  ,                                       !- View Factor to Ground
  ,                                       !- Number of Vertices
  15.24, 0, 5.18,                         !- X,Y,Z Vertex 1 {m}
  15.24, 0, 0,                            !- X,Y,Z Vertex 2 {m}
  22.86, 0, 0,                            !- X,Y,Z Vertex 3 {m}
  22.86, 0, 5.18;                         !- X,Y,Z Vertex 4 {m}

OS:Surface,
  {aca2c652-2a49-4925-b828-2ae7e0317fc5}, !- Handle
  SMstore3_Wall_1,                        !- Name
  Wall,                                   !- Surface Type
  ,                                       !- Construction Name
  {ab4d5305-d428-465c-8009-bc4150273508}, !- Space Name
  Outdoors,                               !- Outside Boundary Condition
  ,                                       !- Outside Boundary Condition Object
  SunExposed,                             !- Sun Exposure
  WindExposed,                            !- Wind Exposure
  ,                                       !- View Factor to Ground
  ,                                       !- Number of Vertices
  30.48, 0, 5.18,                         !- X,Y,Z Vertex 1 {m}
  30.48, 0, 0,                            !- X,Y,Z Vertex 2 {m}
  38.1, 0, 0,                             !- X,Y,Z Vertex 3 {m}
  38.1, 0, 5.18;                          !- X,Y,Z Vertex 4 {m}

OS:Surface,
  {cfdbec31-617a-4953-913a-420145a16f31}, !- Handle
  LGstore2_Wall_1,                        !- Name
  Wall,                                   !- Surface Type
  ,                                       !- Construction Name
  {4ab39cda-851f-4e81-b908-ae359b3e2c57}, !- Space Name
  Outdoors,                               !- Outside Boundary Condition
  ,                                       !- Outside Boundary Condition Object
  SunExposed,                             !- Sun Exposure
  WindExposed,                            !- Wind Exposure
  ,                                       !- View Factor to Ground
  ,                                       !- Number of Vertices
  45.72, 0, 5.18,                         !- X,Y,Z Vertex 1 {m}
  45.72, 0, 0,                            !- X,Y,Z Vertex 2 {m}
  60.96, 0, 0,                            !- X,Y,Z Vertex 3 {m}
  60.96, 0, 5.18;                         !- X,Y,Z Vertex 4 {m}

OS:Connection,
  {17acd66b-7f78-4f32-8046-d388e2ab97f0}, !- Handle
  ,                                       !- Source Object
  11,                                     !- Outlet Port
  ,                                       !- Target Object
  2;                                      !- Inlet Port

OS:Space,
  {afa5c72f-ec16-4fb7-9014-0c120fd3d938}, !- Handle
  SMstore5,                               !- Name
  {164a0580-ffbb-4880-aebc-aa07fcd5fec2}, !- Space Type Name
  ,                                       !- Default Construction Set Name
  ,                                       !- Default Schedule Set Name
  0,                                      !- Direction of Relative North {deg}
  0,                                      !- X Origin {m}
  0,                                      !- Y Origin {m}
  0,                                      !- Z Origin {m}
  {260f6357-91fd-4976-8e49-4c3b37d44115}, !- Building Story Name
  {a92ee63f-64f7-45a6-a679-7915e8527730}, !- Thermal Zone Name
  Yes,                                    !- Part of Total Floor Area
  ;                                       !- Design Specification Outdoor Air Object Name

OS:Connection,
  {29d53957-5c84-42dc-b815-cc7e273052e0}, !- Handle
  ,                                       !- Source Object
  11,                                     !- Outlet Port
  ,                                       !- Target Object
  2;                                      !- Inlet Port

OS:Space,
  {3cabba90-ed6b-4267-bb90-b1645c10f28e}, !- Handle
  LGstore1,                               !- Name
  {164a0580-ffbb-4880-aebc-aa07fcd5fec2}, !- Space Type Name
  ,                                       !- Default Construction Set Name
  ,                                       !- Default Schedule Set Name
  0,                                      !- Direction of Relative North {deg}
  0,                                      !- X Origin {m}
  0,                                      !- Y Origin {m}
  0,                                      !- Z Origin {m}
  {260f6357-91fd-4976-8e49-4c3b37d44115}, !- Building Story Name
  {f1f6ddf2-c720-41ad-9b56-ece3195b4748}, !- Thermal Zone Name
  Yes,                                    !- Part of Total Floor Area
  ;                                       !- Design Specification Outdoor Air Object Name

OS:Surface,
  {35c9e248-8c29-4c78-be0b-e64f33f3eb43}, !- Handle
  SMstore3_Roof,                          !- Name
  RoofCeiling,                            !- Surface Type
  ,                                       !- Construction Name
  {ab4d5305-d428-465c-8009-bc4150273508}, !- Space Name
  Outdoors,                               !- Outside Boundary Condition
  ,                                       !- Outside Boundary Condition Object
  SunExposed,                             !- Sun Exposure
  WindExposed,                            !- Wind Exposure
  ,                                       !- View Factor to Ground
  ,                                       !- Number of Vertices
  38.1, 0, 5.18,                          !- X,Y,Z Vertex 1 {m}
  38.1, 22.86, 5.18,                      !- X,Y,Z Vertex 2 {m}
  30.48, 22.86, 5.18,                     !- X,Y,Z Vertex 3 {m}
  30.48, 0, 5.18;                         !- X,Y,Z Vertex 4 {m}

OS:Surface,
  {a981e60b-bd4a-4547-b26f-13d5b83eddb7}, !- Handle
  SMstore8_Wall_1,                        !- Name
  Wall,                                   !- Surface Type
  ,                                       !- Construction Name
  {2ce2b667-ac4f-4f47-b0e0-c3246eb94e55}, !- Space Name
  Outdoors,                               !- Outside Boundary Condition
  ,                                       !- Outside Boundary Condition Object
  SunExposed,                             !- Sun Exposure
  WindExposed,                            !- Wind Exposure
  ,                                       !- View Factor to Ground
  ,                                       !- Number of Vertices
  83.82, 0, 5.18,                         !- X,Y,Z Vertex 1 {m}
  83.82, 0, 0,                            !- X,Y,Z Vertex 2 {m}
  91.44, 0, 0,                            !- X,Y,Z Vertex 3 {m}
  91.44, 0, 5.18;                         !- X,Y,Z Vertex 4 {m}

OS:Connection,
  {5afa1051-e506-44e1-b85e-dd3810e53214}, !- Handle
  ,                                       !- Source Object
  11,                                     !- Outlet Port
  ,                                       !- Target Object
  2;                                      !- Inlet Port

OS:Space,
  {2ce2b667-ac4f-4f47-b0e0-c3246eb94e55}, !- Handle
  SMstore8,                               !- Name
  {164a0580-ffbb-4880-aebc-aa07fcd5fec2}, !- Space Type Name
  ,                                       !- Default Construction Set Name
  ,                                       !- Default Schedule Set Name
  0,                                      !- Direction of Relative North {deg}
  0,                                      !- X Origin {m}
  0,                                      !- Y Origin {m}
  0,                                      !- Z Origin {m}
  {260f6357-91fd-4976-8e49-4c3b37d44115}, !- Building Story Name
  {ce1d10cc-3c29-4d1a-a100-3728349e7b9b}, !- Thermal Zone Name
  Yes;                                    !- Part of Total Floor Area

OS:Surface,
  {730fcd9e-2ef7-4fef-bb77-e8c7e38f6d11}, !- Handle
  SMstore1_Wall_3,                        !- Name
  Wall,                                   !- Surface Type
  ,                                       !- Construction Name
  {6d54358c-9390-42e5-bc44-ebe58628f22c}, !- Space Name
  Outdoors,                               !- Outside Boundary Condition
  ,                                       !- Outside Boundary Condition Object
  SunExposed,                             !- Sun Exposure
  WindExposed,                            !- Wind Exposure
  ,                                       !- View Factor to Ground
  ,                                       !- Number of Vertices
  22.86, 22.86, 5.18,                     !- X,Y,Z Vertex 1 {m}
  22.86, 22.86, 0,                        !- X,Y,Z Vertex 2 {m}
  15.24, 22.86, 0,                        !- X,Y,Z Vertex 3 {m}
  15.24, 22.86, 5.18;                     !- X,Y,Z Vertex 4 {m}

OS:Connection,
  {7b5d66a9-ca22-48a4-9e6d-f0ca7607ebf7}, !- Handle
  ,                                       !- Source Object
  11,                                     !- Outlet Port
  ,                                       !- Target Object
  2;                                      !- Inlet Port

OS:Space,
  {cbc69268-5c4e-4419-ad78-59e2fa30f77b}, !- Handle
  SMstore4,                               !- Name
  {164a0580-ffbb-4880-aebc-aa07fcd5fec2}, !- Space Type Name
  ,                                       !- Default Construction Set Name
  ,                                       !- Default Schedule Set Name
  0,                                      !- Direction of Relative North {deg}
  0,                                      !- X Origin {m}
  0,                                      !- Y Origin {m}
  0,                                      !- Z Origin {m}
  {260f6357-91fd-4976-8e49-4c3b37d44115}, !- Building Story Name
  {a92ee63f-64f7-45a6-a679-7915e8527730}, !- Thermal Zone Name
  Yes,                                    !- Part of Total Floor Area
  ;                                       !- Design Specification Outdoor Air Object Name

OS:Surface,
  {a101a558-bb0b-4742-9b63-9c3ff75af0c7}, !- Handle
  SMstore5_Wall_4,                        !- Name
  Wall,                                   !- Surface Type
  ,                                       !- Construction Name
  {afa5c72f-ec16-4fb7-9014-0c120fd3d938}, !- Space Name
  Surface,                                !- Outside Boundary Condition
  {8d6f4085-54c4-4213-935a-c82d5ea82b55}, !- Outside Boundary Condition Object
  NoSun,                                  !- Sun Exposure
  NoWind,                                 !- Wind Exposure
  ,                                       !- View Factor to Ground
  ,                                       !- Number of Vertices
  68.58, 0, 5.18,                         !- X,Y,Z Vertex 1 {m}
  68.58, 0, 0,                            !- X,Y,Z Vertex 2 {m}
  68.58, 22.86, 0,                        !- X,Y,Z Vertex 3 {m}
  68.58, 22.86, 5.18;                     !- X,Y,Z Vertex 4 {m}

OS:Surface,
  {8f9ca5b4-0882-4430-9ea2-a289a6f21d1c}, !- Handle
  SMstore4_Wall_1,                        !- Name
  Wall,                                   !- Surface Type
  ,                                       !- Construction Name
  {cbc69268-5c4e-4419-ad78-59e2fa30f77b}, !- Space Name
  Outdoors,                               !- Outside Boundary Condition
  ,                                       !- Outside Boundary Condition Object
  SunExposed,                             !- Sun Exposure
  WindExposed,                            !- Wind Exposure
  ,                                       !- View Factor to Ground
  ,                                       !- Number of Vertices
  38.1, 0, 5.18,                          !- X,Y,Z Vertex 1 {m}
  38.1, 0, 0,                             !- X,Y,Z Vertex 2 {m}
  45.72, 0, 0,                            !- X,Y,Z Vertex 3 {m}
  45.72, 0, 5.18;                         !- X,Y,Z Vertex 4 {m}

OS:Surface,
  {9ab959d2-7a1d-45ff-8033-6340ab0ec147}, !- Handle
  SMstore2_Wall_3,                        !- Name
  Wall,                                   !- Surface Type
  ,                                       !- Construction Name
  {5ea367b2-633e-43a1-9423-f1b770d2335d}, !- Space Name
  Outdoors,                               !- Outside Boundary Condition
  ,                                       !- Outside Boundary Condition Object
  SunExposed,                             !- Sun Exposure
  WindExposed,                            !- Wind Exposure
  ,                                       !- View Factor to Ground
  ,                                       !- Number of Vertices
  30.48, 22.86, 5.18,                     !- X,Y,Z Vertex 1 {m}
  30.48, 22.86, 0,                        !- X,Y,Z Vertex 2 {m}
  22.86, 22.86, 0,                        !- X,Y,Z Vertex 3 {m}
  22.86, 22.86, 5.18;                     !- X,Y,Z Vertex 4 {m}

OS:Surface,
  {ffacf618-7d8f-4bd0-b97f-8beb810f02a6}, !- Handle
  SMstore4_Wall_3,                        !- Name
  Wall,                                   !- Surface Type
  ,                                       !- Construction Name
  {cbc69268-5c4e-4419-ad78-59e2fa30f77b}, !- Space Name
  Outdoors,                               !- Outside Boundary Condition
  ,                                       !- Outside Boundary Condition Object
  SunExposed,                             !- Sun Exposure
  WindExposed,                            !- Wind Exposure
  ,                                       !- View Factor to Ground
  ,                                       !- Number of Vertices
  45.72, 22.86, 5.18,                     !- X,Y,Z Vertex 1 {m}
  45.72, 22.86, 0,                        !- X,Y,Z Vertex 2 {m}
  38.1, 22.86, 0,                         !- X,Y,Z Vertex 3 {m}
  38.1, 22.86, 5.18;                      !- X,Y,Z Vertex 4 {m}

OS:Surface,
  {19a4679e-7e41-48ab-83ca-4e78384c4090}, !- Handle
  SMstore6_Floor,                         !- Name
  Floor,                                  !- Surface Type
  ,                                       !- Construction Name
  {8aee463a-4c3c-4367-8f45-64fb6d2bfc88}, !- Space Name
  Ground,                                 !- Outside Boundary Condition
  ,                                       !- Outside Boundary Condition Object
  NoSun,                                  !- Sun Exposure
  NoWind,                                 !- Wind Exposure
  ,                                       !- View Factor to Ground
  ,                                       !- Number of Vertices
  76.2, 22.86, 0,                         !- X,Y,Z Vertex 1 {m}
  76.2, 0, 0,                             !- X,Y,Z Vertex 2 {m}
  68.58, 0, 0,                            !- X,Y,Z Vertex 3 {m}
  68.58, 22.86, 0;                        !- X,Y,Z Vertex 4 {m}

OS:Connection,
  {0aa7727c-943d-4a99-88b4-85ef23d4acaf}, !- Handle
  ,                                       !- Source Object
  11,                                     !- Outlet Port
  ,                                       !- Target Object
  2;                                      !- Inlet Port

OS:Space,
  {8aee463a-4c3c-4367-8f45-64fb6d2bfc88}, !- Handle
  SMstore6,                               !- Name
  {164a0580-ffbb-4880-aebc-aa07fcd5fec2}, !- Space Type Name
  ,                                       !- Default Construction Set Name
  ,                                       !- Default Schedule Set Name
  0,                                      !- Direction of Relative North {deg}
  0,                                      !- X Origin {m}
  0,                                      !- Y Origin {m}
  0,                                      !- Z Origin {m}
  {260f6357-91fd-4976-8e49-4c3b37d44115}, !- Building Story Name
  {a92ee63f-64f7-45a6-a679-7915e8527730}, !- Thermal Zone Name
  Yes,                                    !- Part of Total Floor Area
  ;                                       !- Design Specification Outdoor Air Object Name

OS:Surface,
  {8a8b84a7-92e6-402a-9700-bff1d8f06681}, !- Handle
  SMstore8_Floor,                         !- Name
  Floor,                                  !- Surface Type
  ,                                       !- Construction Name
  {2ce2b667-ac4f-4f47-b0e0-c3246eb94e55}, !- Space Name
  Ground,                                 !- Outside Boundary Condition
  ,                                       !- Outside Boundary Condition Object
  NoSun,                                  !- Sun Exposure
  NoWind,                                 !- Wind Exposure
  ,                                       !- View Factor to Ground
  ,                                       !- Number of Vertices
  91.44, 22.86, 0,                        !- X,Y,Z Vertex 1 {m}
  91.44, 0, 0,                            !- X,Y,Z Vertex 2 {m}
  83.82, 0, 0,                            !- X,Y,Z Vertex 3 {m}
  83.82, 22.86, 0;                        !- X,Y,Z Vertex 4 {m}

OS:Surface,
  {859dd1da-0f90-4c2c-920b-6714f862d2f4}, !- Handle
  LGstore2_Wall_3,                        !- Name
  Wall,                                   !- Surface Type
  ,                                       !- Construction Name
  {4ab39cda-851f-4e81-b908-ae359b3e2c57}, !- Space Name
  Outdoors,                               !- Outside Boundary Condition
  ,                                       !- Outside Boundary Condition Object
  SunExposed,                             !- Sun Exposure
  WindExposed,                            !- Wind Exposure
  ,                                       !- View Factor to Ground
  ,                                       !- Number of Vertices
  60.96, 22.86, 5.18,                     !- X,Y,Z Vertex 1 {m}
  60.96, 22.86, 0,                        !- X,Y,Z Vertex 2 {m}
  45.72, 22.86, 0,                        !- X,Y,Z Vertex 3 {m}
  45.72, 22.86, 5.18;                     !- X,Y,Z Vertex 4 {m}

OS:Surface,
  {898c48c2-3511-4d12-b01a-84263da66884}, !- Handle
  SMstore4_Wall_2,                        !- Name
  Wall,                                   !- Surface Type
  ,                                       !- Construction Name
  {cbc69268-5c4e-4419-ad78-59e2fa30f77b}, !- Space Name
  Surface,                                !- Outside Boundary Condition
  {06fa6f92-f930-43e6-be84-9e67dc67d0a3}, !- Outside Boundary Condition Object
  NoSun,                                  !- Sun Exposure
  NoWind,                                 !- Wind Exposure
  ,                                       !- View Factor to Ground
  ,                                       !- Number of Vertices
  38.1, 22.86, 5.18,                      !- X,Y,Z Vertex 1 {m}
  38.1, 22.86, 0,                         !- X,Y,Z Vertex 2 {m}
  38.1, 0, 0,                             !- X,Y,Z Vertex 3 {m}
  38.1, 0, 5.18;                          !- X,Y,Z Vertex 4 {m}

OS:Surface,
  {94d786d5-84cc-4e6f-8216-742ef4b9d61e}, !- Handle
  SMstore7_Roof,                          !- Name
  RoofCeiling,                            !- Surface Type
  ,                                       !- Construction Name
  {89130de1-d42c-444e-801d-7d9adf3e04aa}, !- Space Name
  Outdoors,                               !- Outside Boundary Condition
  ,                                       !- Outside Boundary Condition Object
  SunExposed,                             !- Sun Exposure
  WindExposed,                            !- Wind Exposure
  ,                                       !- View Factor to Ground
  ,                                       !- Number of Vertices
  83.82, 0, 5.18,                         !- X,Y,Z Vertex 1 {m}
  83.82, 22.86, 5.18,                     !- X,Y,Z Vertex 2 {m}
  76.2, 22.86, 5.18,                      !- X,Y,Z Vertex 3 {m}
  76.2, 0, 5.18;                          !- X,Y,Z Vertex 4 {m}

OS:Surface,
  {10a01535-0249-41c9-9bd9-ffb0382e7431}, !- Handle
  SMstore2_Floor,                         !- Name
  Floor,                                  !- Surface Type
  ,                                       !- Construction Name
  {5ea367b2-633e-43a1-9423-f1b770d2335d}, !- Space Name
  Ground,                                 !- Outside Boundary Condition
  ,                                       !- Outside Boundary Condition Object
  NoSun,                                  !- Sun Exposure
  NoWind,                                 !- Wind Exposure
  ,                                       !- View Factor to Ground
  ,                                       !- Number of Vertices
  30.48, 22.86, 0,                        !- X,Y,Z Vertex 1 {m}