
OS:Version,
  {f85b3287-b49e-47d5-9678-545bd26e7425}, !- Handle
  3.2.1;                                  !- Version Identifier

OS:ScheduleTypeLimits,
  {fed4d48f-a03b-4649-98e3-4111435b159a}, !- Handle
  Always On Discrete Limits,              !- Name
  0,                                      !- Lower Limit Value
  1,                                      !- Upper Limit Value
  Discrete,                               !- Numeric Type
  Availability;                           !- Unit Type

OS:Site,
  {e4e0cf83-aa67-462b-ac86-dd69d24de0d1}, !- Handle
  Moncton Intl AP_NB_CAN,                 !- Name
  46.11,                                  !- Latitude {deg}
  -64.68,                                 !- Longitude {deg}
  -4,                                     !- Time Zone {hr}
  70.7,                                   !- Elevation {m}
  City;                                   !- Terrain

OS:SimulationControl,
  {fe5b5f3c-f637-4fd1-a2b3-f4d09456dccb}, !- Handle
  Yes,                                    !- Do Zone Sizing Calculation
  Yes,                                    !- Do System Sizing Calculation
  Yes,                                    !- Do Plant Sizing Calculation
  No,                                     !- Run Simulation for Sizing Periods
  Yes,                                    !- Run Simulation for Weather File Run Periods
  0.04,                                   !- Loads Convergence Tolerance Value {W}
  0.2,                                    !- Temperature Convergence Tolerance Value {deltaC}
  FullInteriorAndExterior,                !- Solar Distribution
  25,                                     !- Maximum Number of Warmup Days
  6,                                      !- Minimum Number of Warmup Days
  No,                                     !- Do HVAC Sizing Simulation for Sizing Periods
  1;                                      !- Maximum Number of HVAC Sizing Simulation Passes

OS:Surface,
  {67ca62ce-e572-4957-8e6a-efb74825f170}, !- Handle
  Perimeter_ZN_1_wall_south,              !- Name
  Wall,                                   !- Surface Type
  ,                                       !- Construction Name
  {72459874-7e2c-4ecd-ae58-b2d96c368b31}, !- Space Name
  Outdoors,                               !- Outside Boundary Condition
  ,                                       !- Outside Boundary Condition Object
  SunExposed,                             !- Sun Exposure
  WindExposed,                            !- Wind Exposure
  ,                                       !- View Factor to Ground
  ,                                       !- Number of Vertices
  0, 0, 3.05,                             !- X,Y,Z Vertex 1 {m}
  0, 0, 0,                                !- X,Y,Z Vertex 2 {m}
  27.69, 0, 0,                            !- X,Y,Z Vertex 3 {m}
  27.69, 0, 3.05;                         !- X,Y,Z Vertex 4 {m}

OS:Connection,
  {d367abd9-ef96-4df2-a4a5-60b4b9f5779f}, !- Handle
  ,                                       !- Source Object
  11,                                     !- Outlet Port
  ,                                       !- Target Object
  2;                                      !- Inlet Port

OS:Space,
  {72459874-7e2c-4ecd-ae58-b2d96c368b31}, !- Handle
  Perimeter_ZN_1,                         !- Name
  {9bb5443a-6c0e-4398-ae7e-487262d68794}, !- Space Type Name
  ,                                       !- Default Construction Set Name
  ,                                       !- Default Schedule Set Name
  0,                                      !- Direction of Relative North {deg}
  0,                                      !- X Origin {m}
  0,                                      !- Y Origin {m}
  0,                                      !- Z Origin {m}
  {2edc3034-10d9-48ff-9f1e-ff89d18bbb3f}, !- Building Story Name
  {95e184cc-ff6b-46ae-bcc9-c76e09cc8272}, !- Thermal Zone Name
  Yes,                                    !- Part of Total Floor Area
  ;                                       !- Design Specification Outdoor Air Object Name

OS:Surface,
  {f3b8b73c-8caf-40ab-b966-4fbde2e2f57a}, !- Handle
  Attic_roof_east,                        !- Name
  RoofCeiling,                            !- Surface Type
  ,                                       !- Construction Name
  {fb08bb0a-69e7-4942-8807-550e21855286}, !- Space Name
  Outdoors,                               !- Outside Boundary Condition
  ,                                       !- Outside Boundary Condition Object
  SunExposed,                             !- Sun Exposure
  WindExposed,                            !- Wind Exposure
  ,                                       !- View Factor to Ground
  ,                                       !- Number of Vertices
  18.46, 9.23, 6.33,                      !- X,Y,Z Vertex 1 {m}
  28.29, -0.6, 3.05,                      !- X,Y,Z Vertex 2 {m}
  28.29, 19.06, 3.05;                     !- X,Y,Z Vertex 3 {m}

OS:Connection,
  {b76c9257-2ba1-41ca-b928-7e4cece1fb38}, !- Handle
  ,                                       !- Source Object
  11,                                     !- Outlet Port
  ,                                       !- Target Object
  2;                                      !- Inlet Port

OS:Space,
  {fb08bb0a-69e7-4942-8807-550e21855286}, !- Handle
  Attic,                                  !- Name
  {cec78ef3-0017-48c4-8db5-8ed1c89e7f91}, !- Space Type Name
  ,                                       !- Default Construction Set Name
  ,                                       !- Default Schedule Set Name
  0,                                      !- Direction of Relative North {deg}
  0,                                      !- X Origin {m}
  0,                                      !- Y Origin {m}
  0,                                      !- Z Origin {m}
  {314c62be-fce7-4e5a-bd05-c87c85e86c27}, !- Building Story Name
  {9137661a-1e75-4208-9944-77eefa64ba68}, !- Thermal Zone Name
  No;                                     !- Part of Total Floor Area

OS:Surface,
  {14eb925b-51a2-48c3-b571-9be87c158227}, !- Handle
  Attic_roof_north,                       !- Name
  RoofCeiling,                            !- Surface Type
  ,                                       !- Construction Name
  {fb08bb0a-69e7-4942-8807-550e21855286}, !- Space Name
  Outdoors,                               !- Outside Boundary Condition
  ,                                       !- Outside Boundary Condition Object
  SunExposed,                             !- Sun Exposure
  WindExposed,                            !- Wind Exposure
  ,                                       !- View Factor to Ground
  ,                                       !- Number of Vertices
  18.46, 9.23, 6.33,                      !- X,Y,Z Vertex 1 {m}
  28.29, 19.06, 3.05,                     !- X,Y,Z Vertex 2 {m}
  -0.6, 19.06, 3.05,                      !- X,Y,Z Vertex 3 {m}
  9.23, 9.23, 6.33;                       !- X,Y,Z Vertex 4 {m}

OS:Surface,
  {de9219d4-cc0d-45c1-b670-26d576f7fec4}, !- Handle
  Perimeter_ZN_2_ceiling,                 !- Name
  RoofCeiling,                            !- Surface Type
  ,                                       !- Construction Name
  {0ebdaea7-c6cb-452f-b121-7bbfcb1d95b8}, !- Space Name
  Surface,                                !- Outside Boundary Condition
  {5ba0e030-ad8e-4939-9022-603ea15873fd}, !- Outside Boundary Condition Object
  NoSun,                                  !- Sun Exposure
  NoWind,                                 !- Wind Exposure
  ,                                       !- View Factor to Ground
  ,                                       !- Number of Vertices
  27.69, 0, 3.05,                         !- X,Y,Z Vertex 1 {m}
  27.69, 18.46, 3.05,                     !- X,Y,Z Vertex 2 {m}
  22.69, 13.46, 3.05,                     !- X,Y,Z Vertex 3 {m}
  22.69, 5, 3.05;                         !- X,Y,Z Vertex 4 {m}

OS:Connection,
  {3e98f27d-1e5c-47bf-b1dd-320cc71dc280}, !- Handle
  ,                                       !- Source Object
  11,                                     !- Outlet Port
  ,                                       !- Target Object
  2;                                      !- Inlet Port

OS:Space,
  {0ebdaea7-c6cb-452f-b121-7bbfcb1d95b8}, !- Handle
  Perimeter_ZN_2,                         !- Name
  {9bb5443a-6c0e-4398-ae7e-487262d68794}, !- Space Type Name
  ,                                       !- Default Construction Set Name
  ,                                       !- Default Schedule Set Name
  0,                                      !- Direction of Relative North {deg}
  0,                                      !- X Origin {m}
  0,                                      !- Y Origin {m}
  0,                                      !- Z Origin {m}
  {2edc3034-10d9-48ff-9f1e-ff89d18bbb3f}, !- Building Story Name
  {29eee35b-aab3-4786-9756-e58f00a8c5fc}, !- Thermal Zone Name
  Yes,                                    !- Part of Total Floor Area
  ;                                       !- Design Specification Outdoor Air Object Name

OS:Surface,
  {e6e6213c-27e3-4780-914d-aab86a026932}, !- Handle
  Perimeter_ZN_2_wall_north,              !- Name
  Wall,                                   !- Surface Type
  ,                                       !- Construction Name
  {0ebdaea7-c6cb-452f-b121-7bbfcb1d95b8}, !- Space Name
  Surface,                                !- Outside Boundary Condition
  {294e6a4a-4754-4ea0-b450-586c284d51ae}, !- Outside Boundary Condition Object
  NoSun,                                  !- Sun Exposure
  NoWind,                                 !- Wind Exposure
  ,                                       !- View Factor to Ground
  ,                                       !- Number of Vertices
  27.69, 18.46, 3.05,                     !- X,Y,Z Vertex 1 {m}
  27.69, 18.46, 0,                        !- X,Y,Z Vertex 2 {m}
  22.69, 13.46, 0,                        !- X,Y,Z Vertex 3 {m}
  22.69, 13.46, 3.05;                     !- X,Y,Z Vertex 4 {m}

OS:Surface,
  {5ad6d532-e8de-4604-a79c-c900df2aa730}, !- Handle
  Perimeter_ZN_3_wall_south,              !- Name
  Wall,                                   !- Surface Type
  ,                                       !- Construction Name
  {bb97cae6-ab6e-4ca9-a862-a3e532ee5e5d}, !- Space Name
  Surface,                                !- Outside Boundary Condition
  {7f4227ad-335c-4683-9a99-6c804048153c}, !- Outside Boundary Condition Object
  NoSun,                                  !- Sun Exposure
  NoWind,                                 !- Wind Exposure
  ,                                       !- View Factor to Ground
  ,                                       !- Number of Vertices
  5, 13.46, 3.05,                         !- X,Y,Z Vertex 1 {m}
  5, 13.46, 0,                            !- X,Y,Z Vertex 2 {m}
  22.69, 13.46, 0,                        !- X,Y,Z Vertex 3 {m}
  22.69, 13.46, 3.05;                     !- X,Y,Z Vertex 4 {m}

OS:Connection,
  {4d957a31-f699-4eae-93e7-35cb0402bdc3}, !- Handle
  ,                                       !- Source Object
  11,                                     !- Outlet Port
  ,                                       !- Target Object
  2;                                      !- Inlet Port

OS:Space,
  {bb97cae6-ab6e-4ca9-a862-a3e532ee5e5d}, !- Handle
  Perimeter_ZN_3,                         !- Name
  {9bb5443a-6c0e-4398-ae7e-487262d68794}, !- Space Type Name
  ,                                       !- Default Construction Set Name
  ,                                       !- Default Schedule Set Name
  0,                                      !- Direction of Relative North {deg}
  0,                                      !- X Origin {m}
  0,                                      !- Y Origin {m}
  0,                                      !- Z Origin {m}
  {2edc3034-10d9-48ff-9f1e-ff89d18bbb3f}, !- Building Story Name
  {beef0226-cffa-4768-ba2b-c1161b3df968}, !- Thermal Zone Name
  Yes;                                    !- Part of Total Floor Area

OS:Connection,
  {99cfc414-45c1-4be7-8757-3ae36bc2af42}, !- Handle
  ,                                       !- Source Object
  11,                                     !- Outlet Port
  ,                                       !- Target Object
  2;                                      !- Inlet Port

OS:Space,
  {f9fb4430-2ed2-4cfb-bf10-1172712402a2}, !- Handle
  Perimeter_ZN_4,                         !- Name
  {9bb5443a-6c0e-4398-ae7e-487262d68794}, !- Space Type Name
  ,                                       !- Default Construction Set Name
  ,                                       !- Default Schedule Set Name
  0,                                      !- Direction of Relative North {deg}
  0,                                      !- X Origin {m}
  0,                                      !- Y Origin {m}
  0,                                      !- Z Origin {m}
  {2edc3034-10d9-48ff-9f1e-ff89d18bbb3f}, !- Building Story Name
  {40684db7-f15f-4718-8b9d-2de2bb6c75ef}, !- Thermal Zone Name
  Yes;                                    !- Part of Total Floor Area

OS:Surface,
  {76eef8b9-8d45-4e4a-a6e8-a678fd658045}, !- Handle
  Perimeter_ZN_2_wall_west,               !- Name
  Wall,                                   !- Surface Type
  ,                                       !- Construction Name
  {0ebdaea7-c6cb-452f-b121-7bbfcb1d95b8}, !- Space Name
  Surface,                                !- Outside Boundary Condition
  {72a1b6a0-5c0f-4a8b-a8d5-81bef0ff1769}, !- Outside Boundary Condition Object
  NoSun,                                  !- Sun Exposure
  NoWind,                                 !- Wind Exposure
  ,                                       !- View Factor to Ground
  ,                                       !- Number of Vertices
  22.69, 13.46, 3.05,                     !- X,Y,Z Vertex 1 {m}
  22.69, 13.46, 0,                        !- X,Y,Z Vertex 2 {m}
  22.69, 5, 0,                            !- X,Y,Z Vertex 3 {m}
  22.69, 5, 3.05;                         !- X,Y,Z Vertex 4 {m}

OS:Surface,
  {9f3c4b24-4e8e-4b4e-932c-0c0aeb12edab}, !- Handle
  Perimeter_ZN_4_ceiling,                 !- Name
  RoofCeiling,                            !- Surface Type
  ,                                       !- Construction Name
  {f9fb4430-2ed2-4cfb-bf10-1172712402a2}, !- Space Name
  Surface,                                !- Outside Boundary Condition
  {b890eeac-5336-4ed2-9467-56785822dd86}, !- Outside Boundary Condition Object
  NoSun,                                  !- Sun Exposure
  NoWind,                                 !- Wind Exposure
  ,                                       !- View Factor to Ground
  ,                                       !- Number of Vertices
  0, 0, 3.05,                             !- X,Y,Z Vertex 1 {m}
  5, 5, 3.05,                             !- X,Y,Z Vertex 2 {m}
  5, 13.46, 3.05,                         !- X,Y,Z Vertex 3 {m}
  0, 18.46, 3.05;                         !- X,Y,Z Vertex 4 {m}

OS:Output:Meter,
  {abc5d571-df7f-47b1-bf8b-892a6dadede3}, !- Handle
  NaturalGas:Facility,                    !- Name
  Hourly,                                 !- Reporting Frequency
  True,                                   !- Meter File Only
  False;                                  !- Cumulative

OS:Surface,
  {feb7c449-5351-48a2-865e-0e36c2c4fc6f}, !- Handle
  Core_ZN_ceiling,                        !- Name
  RoofCeiling,                            !- Surface Type
  ,                                       !- Construction Name
  {32844cd3-cab3-4870-bbb6-6c79a28481b7}, !- Space Name
  Surface,                                !- Outside Boundary Condition
  {30049214-f475-466f-8308-e6d33248de87}, !- Outside Boundary Condition Object
  NoSun,                                  !- Sun Exposure
  NoWind,                                 !- Wind Exposure
  ,                                       !- View Factor to Ground
  ,                                       !- Number of Vertices
  22.69, 5, 3.05,                         !- X,Y,Z Vertex 1 {m}
  22.69, 13.46, 3.05,                     !- X,Y,Z Vertex 2 {m}
  5, 13.46, 3.05,                         !- X,Y,Z Vertex 3 {m}
  5, 5, 3.05;                             !- X,Y,Z Vertex 4 {m}

OS:Connection,
  {3cc89c32-b209-45a8-aee8-40997f52820c}, !- Handle
  ,                                       !- Source Object
  11,                                     !- Outlet Port
  ,                                       !- Target Object
  2;                                      !- Inlet Port

OS:Space,
  {32844cd3-cab3-4870-bbb6-6c79a28481b7}, !- Handle
  Core_ZN,                                !- Name
  {9bb5443a-6c0e-4398-ae7e-487262d68794}, !- Space Type Name
  ,                                       !- Default Construction Set Name
  ,                                       !- Default Schedule Set Name
  0,                                      !- Direction of Relative North {deg}
  0,                                      !- X Origin {m}
  0,                                      !- Y Origin {m}
  0,                                      !- Z Origin {m}
  {2edc3034-10d9-48ff-9f1e-ff89d18bbb3f}, !- Building Story Name
  {cf401aab-9683-4676-95fb-38f9413196c0}, !- Thermal Zone Name
  Yes;                                    !- Part of Total Floor Area

OS:Surface,
  {f6aedc93-26f5-4756-bb28-f7b245139570}, !- Handle
  Attic_soffit_north,                     !- Name
  Floor,                                  !- Surface Type
  ,                                       !- Construction Name
  {fb08bb0a-69e7-4942-8807-550e21855286}, !- Space Name
  Outdoors,                               !- Outside Boundary Condition
  ,                                       !- Outside Boundary Condition Object
  SunExposed,                             !- Sun Exposure
  WindExposed,                            !- Wind Exposure
  ,                                       !- View Factor to Ground
  ,                                       !- Number of Vertices
  28.29, 19.06, 3.05,                     !- X,Y,Z Vertex 1 {m}
  27.69, 18.46, 3.05,                     !- X,Y,Z Vertex 2 {m}
  0, 18.46, 3.05,                         !- X,Y,Z Vertex 3 {m}
  -0.6, 19.06, 3.05;                      !- X,Y,Z Vertex 4 {m}

OS:Surface,
  {cf5a64d9-d084-4725-8267-3f5e6962fc94}, !- Handle
  Perimeter_ZN_2_floor,                   !- Name
  Floor,                                  !- Surface Type
  ,                                       !- Construction Name
  {0ebdaea7-c6cb-452f-b121-7bbfcb1d95b8}, !- Space Name
  Ground,                                 !- Outside Boundary Condition
  ,                                       !- Outside Boundary Condition Object
  NoSun,                                  !- Sun Exposure
  NoWind,                                 !- Wind Exposure
  ,                                       !- View Factor to Ground
  ,                                       !- Number of Vertices
  27.69, 18.46, 0,                        !- X,Y,Z Vertex 1 {m}
  27.69, 0, 0,                            !- X,Y,Z Vertex 2 {m}
  22.69, 5, 0,                            !- X,Y,Z Vertex 3 {m}
  22.69, 13.46, 0;                        !- X,Y,Z Vertex 4 {m}

OS:Surface,
  {7f4227ad-335c-4683-9a99-6c804048153c}, !- Handle
  Core_ZN_wall_north,                     !- Name
  Wall,                                   !- Surface Type
  ,                                       !- Construction Name
  {32844cd3-cab3-4870-bbb6-6c79a28481b7}, !- Space Name
  Surface,                                !- Outside Boundary Condition
  {5ad6d532-e8de-4604-a79c-c900df2aa730}, !- Outside Boundary Condition Object
  NoSun,                                  !- Sun Exposure
  NoWind,                                 !- Wind Exposure
  ,                                       !- View Factor to Ground
  ,                                       !- Number of Vertices
  22.69, 13.46, 3.05,                     !- X,Y,Z Vertex 1 {m}
  22.69, 13.46, 0,                        !- X,Y,Z Vertex 2 {m}
  5, 13.46, 0,                            !- X,Y,Z Vertex 3 {m}
  5, 13.46, 3.05;                         !- X,Y,Z Vertex 4 {m}

OS:Surface,
  {d4106b28-896a-419d-8c67-83b35ee4d552}, !- Handle
  Core_ZN_wall_west,                      !- Name
  Wall,                                   !- Surface Type
  ,                                       !- Construction Name
  {32844cd3-cab3-4870-bbb6-6c79a28481b7}, !- Space Name
  Surface,                                !- Outside Boundary Condition
  {7db0c075-4e62-4963-865c-3941b58b019a}, !- Outside Boundary Condition Object
  NoSun,                                  !- Sun Exposure
  NoWind,                                 !- Wind Exposure
  ,                                       !- View Factor to Ground
  ,                                       !- Number of Vertices
  5, 13.46, 3.05,                         !- X,Y,Z Vertex 1 {m}
  5, 13.46, 0,                            !- X,Y,Z Vertex 2 {m}
  5, 5, 0,                                !- X,Y,Z Vertex 3 {m}
  5, 5, 3.05;                             !- X,Y,Z Vertex 4 {m}

OS:Surface,
  {10adca74-548a-4d13-a7fc-d1068a27bad8}, !- Handle
  Attic_roof_south,                       !- Name
  RoofCeiling,                            !- Surface Type
  ,                                       !- Construction Name
  {fb08bb0a-69e7-4942-8807-550e21855286}, !- Space Name
  Outdoors,                               !- Outside Boundary Condition
  ,                                       !- Outside Boundary Condition Object
  SunExposed,                             !- Sun Exposure
  WindExposed,                            !- Wind Exposure
  ,                                       !- View Factor to Ground
  ,                                       !- Number of Vertices
  9.23, 9.23, 6.33,                       !- X,Y,Z Vertex 1 {m}
  -0.6, -0.6, 3.05,                       !- X,Y,Z Vertex 2 {m}
  28.29, -0.6, 3.05,                      !- X,Y,Z Vertex 3 {m}
  18.46, 9.23, 6.33;                      !- X,Y,Z Vertex 4 {m}

OS:Surface,
  {17c4f45d-4218-45b0-b696-893c60c109f8}, !- Handle
  Perimeter_ZN_3_wall_north,              !- Name
  Wall,                                   !- Surface Type
  ,                                       !- Construction Name
  {bb97cae6-ab6e-4ca9-a862-a3e532ee5e5d}, !- Space Name
  Outdoors,                               !- Outside Boundary Condition
  ,                                       !- Outside Boundary Condition Object
  SunExposed,                             !- Sun Exposure
  WindExposed,                            !- Wind Exposure
  ,                                       !- View Factor to Ground
  ,                                       !- Number of Vertices
  27.69, 18.46, 3.05,                     !- X,Y,Z Vertex 1 {m}
  27.69, 18.46, 0,                        !- X,Y,Z Vertex 2 {m}
  0, 18.46, 0,                            !- X,Y,Z Vertex 3 {m}
  0, 18.46, 3.05;                         !- X,Y,Z Vertex 4 {m}

OS:ConvergenceLimits,
  {257bad81-3887-44d2-9561-57968d0ebe2d}, !- Handle
  1,                                      !- Minimum System Timestep {minutes}
  20;                                     !- Maximum HVAC Iterations

OS:Surface,
  {b366b5a3-078a-4642-9a0a-cdd102cd3eba}, !- Handle
  Perimeter_ZN_2_wall_south,              !- Name
  Wall,                                   !- Surface Type
  ,                                       !- Construction Name
  {0ebdaea7-c6cb-452f-b121-7bbfcb1d95b8}, !- Space Name
  Surface,                                !- Outside Boundary Condition
  {713571c9-f6e5-4b5b-9f42-ad39d5868894}, !- Outside Boundary Condition Object
  NoSun,                                  !- Sun Exposure
  NoWind,                                 !- Wind Exposure
  ,                                       !- View Factor to Ground
  ,                                       !- Number of Vertices
  22.69, 5, 3.05,                         !- X,Y,Z Vertex 1 {m}
  22.69, 5, 0,                            !- X,Y,Z Vertex 2 {m}
  27.69, 2.04187384066908e-015, 0,        !- X,Y,Z Vertex 3 {m}
  27.69, 2.04187384066908e-015, 3.05;     !- X,Y,Z Vertex 4 {m}

OS:Surface,
  {63b30273-21d2-4b1d-bd16-9edb06da8514}, !- Handle
  Attic_soffit_west,                      !- Name
  Floor,                                  !- Surface Type
  ,                                       !- Construction Name
  {fb08bb0a-69e7-4942-8807-550e21855286}, !- Space Name
  Outdoors,                               !- Outside Boundary Condition
  ,                                       !- Outside Boundary Condition Object
  SunExposed,                             !- Sun Exposure
  WindExposed,                            !- Wind Exposure
  ,                                       !- View Factor to Ground
  ,                                       !- Number of Vertices
  -0.6, 19.06, 3.05,                      !- X,Y,Z Vertex 1 {m}
  0, 18.46, 3.05,                         !- X,Y,Z Vertex 2 {m}
  0, 0, 3.05,                             !- X,Y,Z Vertex 3 {m}
  -0.6, -0.6, 3.05;                       !- X,Y,Z Vertex 4 {m}

OS:Surface,
  {de083cd1-af79-470a-a5a9-6fa78e743ccd}, !- Handle
  Perimeter_ZN_4_floor,                   !- Name
  Floor,                                  !- Surface Type
  ,                                       !- Construction Name
  {f9fb4430-2ed2-4cfb-bf10-1172712402a2}, !- Space Name
  Ground,                                 !- Outside Boundary Condition
  ,                                       !- Outside Boundary Condition Object
  NoSun,                                  !- Sun Exposure
  NoWind,                                 !- Wind Exposure
  ,                                       !- View Factor to Ground
  ,                                       !- Number of Vertices
  0, 18.46, 0,                            !- X,Y,Z Vertex 1 {m}
  5, 13.46, 0,                            !- X,Y,Z Vertex 2 {m}
  5, 5, 0,                                !- X,Y,Z Vertex 3 {m}
  0, 0, 0;                                !- X,Y,Z Vertex 4 {m}

OS:Surface,
  {677c0d88-4564-44d6-9ac6-251a100e5d72}, !- Handle
  Perimeter_ZN_4_wall_north,              !- Name
  Wall,                                   !- Surface Type
  ,                                       !- Construction Name
  {f9fb4430-2ed2-4cfb-bf10-1172712402a2}, !- Space Name
  Surface,                                !- Outside Boundary Condition
  {2addb368-09d7-4d71-9187-50f89aab0d28}, !- Outside Boundary Condition Object
  NoSun,                                  !- Sun Exposure
  NoWind,                                 !- Wind Exposure
  ,                                       !- View Factor to Ground
  ,                                       !- Number of Vertices
  5, 13.46, 3.05,                         !- X,Y,Z Vertex 1 {m}
  5, 13.46, 0,                            !- X,Y,Z Vertex 2 {m}
  0, 18.46, 0,                            !- X,Y,Z Vertex 3 {m}
  0, 18.46, 3.05;                         !- X,Y,Z Vertex 4 {m}

OS:Surface,
  {744c91a9-1025-49a9-ad5f-3252777fd52a}, !- Handle
  Attic_soffit_east,                      !- Name
  Floor,                                  !- Surface Type
  ,                                       !- Construction Name
  {fb08bb0a-69e7-4942-8807-550e21855286}, !- Space Name
  Outdoors,                               !- Outside Boundary Condition
  ,                                       !- Outside Boundary Condition Object
  SunExposed,                             !- Sun Exposure
  WindExposed,                            !- Wind Exposure
  ,                                       !- View Factor to Ground
  ,                                       !- Number of Vertices
  28.29, 19.06, 3.05,                     !- X,Y,Z Vertex 1 {m}
  28.29, -0.6, 3.05,                      !- X,Y,Z Vertex 2 {m}
  27.69, 0, 3.05,                         !- X,Y,Z Vertex 3 {m}
  27.69, 18.46, 3.05;                     !- X,Y,Z Vertex 4 {m}

OS:HeatBalanceAlgorithm,
  {30aa4e32-ecc1-41fa-8e20-75c7b3a9c558}, !- Handle
  ConductionTransferFunction,             !- Algorithm
  200;                                    !- Surface Temperature Upper Limit {C}

OS:Surface,
  {47ffdd48-31f2-4e14-9cf2-3fe0ba8f9927}, !- Handle
  Core_ZN_wall_south,                     !- Name
  Wall,                                   !- Surface Type
  ,                                       !- Construction Name
  {32844cd3-cab3-4870-bbb6-6c79a28481b7}, !- Space Name
  Surface,                                !- Outside Boundary Condition
  {678af1cc-9075-45b3-843b-3d44eb4901e0}, !- Outside Boundary Condition Object
  NoSun,                                  !- Sun Exposure
  NoWind,                                 !- Wind Exposure
  ,                                       !- View Factor to Ground
  ,                                       !- Number of Vertices
  5, 5, 3.05,                             !- X,Y,Z Vertex 1 {m}
  5, 5, 0,                                !- X,Y,Z Vertex 2 {m}
  22.69, 5, 0,                            !- X,Y,Z Vertex 3 {m}
  22.69, 5, 3.05;                         !- X,Y,Z Vertex 4 {m}

OS:Surface,
  {912f372d-b179-468e-9e7f-29298eeec743}, !- Handle
  Perimeter_ZN_3_ceiling,                 !- Name
  RoofCeiling,                            !- Surface Type
  ,                                       !- Construction Name
  {bb97cae6-ab6e-4ca9-a862-a3e532ee5e5d}, !- Space Name
  Surface,                                !- Outside Boundary Condition
  {6846f3e0-5f3c-4764-857d-efef5d44c707}, !- Outside Boundary Condition Object
  NoSun,                                  !- Sun Exposure
  NoWind,                                 !- Wind Exposure
  ,                                       !- View Factor to Ground
  ,                                       !- Number of Vertices
  22.69, 13.46, 3.05,                     !- X,Y,Z Vertex 1 {m}
  27.69, 18.46, 3.05,                     !- X,Y,Z Vertex 2 {m}
  0, 18.46, 3.05,                         !- X,Y,Z Vertex 3 {m}