
OS:Version,
  {04238ed0-b30b-4096-9984-9e577bcc778c}, !- Handle
  3.2.1;                                  !- Version Identifier

OS:ScheduleTypeLimits,
  {894c1d7e-fa43-4b52-9492-a10e66dc901f}, !- Handle
  Always On Discrete Limits,              !- Name
  0,                                      !- Lower Limit Value
  1,                                      !- Upper Limit Value
  Discrete,                               !- Numeric Type
  Availability;                           !- Unit Type

OS:Site,
  {faecd613-9968-425f-9fdc-e929aa68dc07}, !- Handle
  THOMPSON A_MB_CAN,                      !- Name
  55.8,                                   !- Latitude {deg}
  -97.86,                                 !- Longitude {deg}
  -6,                                     !- Time Zone {hr}
  224,                                    !- Elevation {m}
  City;                                   !- Terrain

OS:SimulationControl,
  {15d51e58-1faf-4716-8aac-6c267c8c1139}, !- Handle
  Yes,                                    !- Do Zone Sizing Calculation
  Yes,                                    !- Do System Sizing Calculation
  Yes,                                    !- Do Plant Sizing Calculation
  No,                                     !- Run Simulation for Sizing Periods
  Yes,                                    !- Run Simulation for Weather File Run Periods
  0.04,                                   !- Loads Convergence Tolerance Value {W}
  0.2,                                    !- Temperature Convergence Tolerance Value {deltaC}
  FullInteriorAndExterior,                !- Solar Distribution
  25,                                     !- Maximum Number of Warmup Days
  6,                                      !- Minimum Number of Warmup Days
  No,                                     !- Do HVAC Sizing Simulation for Sizing Periods
  1;                                      !- Maximum Number of HVAC Sizing Simulation Passes

OS:Surface,
  {b14a540a-8ac3-4fb4-b61e-cd33f920dd35}, !- Handle
  Bathrooms_ZN_1_FLR_2_Wall_4,            !- Name
  Wall,                                   !- Surface Type
  ,                                       !- Construction Name
  {8c07a26c-759e-4a0c-be83-e179d3ff1ba1}, !- Space Name
  Outdoors,                               !- Outside Boundary Condition
  ,                                       !- Outside Boundary Condition Object
  SunExposed,                             !- Sun Exposure
  WindExposed,                            !- Wind Exposure
  ,                                       !- View Factor to Ground
  ,                                       !- Number of Vertices
  15, 14, 4,                              !- X,Y,Z Vertex 1 {m}
  15, 14, 0,                              !- X,Y,Z Vertex 2 {m}
  0, 14, 0,                               !- X,Y,Z Vertex 3 {m}
  0, 14, 4;                               !- X,Y,Z Vertex 4 {m}

OS:Connection,
  {3daf5232-c140-4073-8a54-d868ab119172}, !- Handle
  ,                                       !- Source Object
  11,                                     !- Outlet Port
  ,                                       !- Target Object
  2;                                      !- Inlet Port

OS:Space,
  {8c07a26c-759e-4a0c-be83-e179d3ff1ba1}, !- Handle
  Bathrooms_ZN_1_FLR_2,                   !- Name
  {96613a88-79b1-402d-8661-dcdfc5b44c52}, !- Space Type Name
  ,                                       !- Default Construction Set Name
  ,                                       !- Default Schedule Set Name
  0,                                      !- Direction of Relative North {deg}
  64,                                     !- X Origin {m}
  90,                                     !- Y Origin {m}
  4,                                      !- Z Origin {m}
  {4d821eda-b5ee-48d5-86db-89d8b7c292a0}, !- Building Story Name
  {1bcefcfa-7f45-4cf0-a12f-4b123fd0927f}, !- Thermal Zone Name
  Yes;                                    !- Part of Total Floor Area

OS:Surface,
  {7ef6e8c5-bf4d-4669-89e1-78154a5a9a65}, !- Handle
  Corner_Class_2_Pod_3_ZN_1_FLR_2_Wall_3, !- Name
  Wall,                                   !- Surface Type
  ,                                       !- Construction Name
  {f70833c5-e11a-4fe3-b01f-1ec1692c6820}, !- Space Name
  Outdoors,                               !- Outside Boundary Condition
  ,                                       !- Outside Boundary Condition Object
  SunExposed,                             !- Sun Exposure
  WindExposed,                            !- Wind Exposure
  ,                                       !- View Factor to Ground
  ,                                       !- Number of Vertices
  11, 9, 4,                               !- X,Y,Z Vertex 1 {m}
  11, 9, 0,                               !- X,Y,Z Vertex 2 {m}
  0, 9, 0,                                !- X,Y,Z Vertex 3 {m}
  0, 9, 4;                                !- X,Y,Z Vertex 4 {m}

OS:Connection,
  {810bbf4f-ecea-46ac-8c19-13efbf0027fd}, !- Handle
  ,                                       !- Source Object
  11,                                     !- Outlet Port
  ,                                       !- Target Object
  2;                                      !- Inlet Port

OS:Space,
  {f70833c5-e11a-4fe3-b01f-1ec1692c6820}, !- Handle
  Corner_Class_2_Pod_3_ZN_1_FLR_2,        !- Name
  {9993251f-78cc-4a26-a604-ddd983d7058e}, !- Space Type Name
  ,                                       !- Default Construction Set Name
  ,                                       !- Default Schedule Set Name
  0,                                      !- Direction of Relative North {deg}
  0,                                      !- X Origin {m}
  95,                                     !- Y Origin {m}
  4,                                      !- Z Origin {m}
  {4d821eda-b5ee-48d5-86db-89d8b7c292a0}, !- Building Story Name
  {650ef2cc-193a-4bd5-9f43-c6130d01a853}, !- Thermal Zone Name
  Yes;                                    !- Part of Total Floor Area

OS:Surface,
  {466bbd9d-853a-46c7-8656-a7cc8aa1a410}, !- Handle
  Kitchen_ZN_1_FLR_1_Floor,               !- Name
  Floor,                                  !- Surface Type
  ,                                       !- Construction Name
  {5ac31c4c-fc60-49f4-83e3-b5b17c6fe4fc}, !- Space Name
  Ground,                                 !- Outside Boundary Condition
  ,                                       !- Outside Boundary Condition Object
  NoSun,                                  !- Sun Exposure
  NoWind,                                 !- Wind Exposure
  ,                                       !- View Factor to Ground
  ,                                       !- Number of Vertices
  24, 9, 0,                               !- X,Y,Z Vertex 1 {m}
  24, 0, 0,                               !- X,Y,Z Vertex 2 {m}
  0, 0, 0,                                !- X,Y,Z Vertex 3 {m}
  0, 9, 0;                                !- X,Y,Z Vertex 4 {m}

OS:Connection,
  {0d02f7c4-82e0-4566-bedf-8548fb9d79fa}, !- Handle
  ,                                       !- Source Object
  11,                                     !- Outlet Port
  ,                                       !- Target Object
  2;                                      !- Inlet Port

OS:Space,
  {5ac31c4c-fc60-49f4-83e3-b5b17c6fe4fc}, !- Handle
  Kitchen_ZN_1_FLR_1,                     !- Name
  {7979a432-5683-4bc2-aa60-70eae818bb8e}, !- Space Type Name
  ,                                       !- Default Construction Set Name
  ,                                       !- Default Schedule Set Name
  0,                                      !- Direction of Relative North {deg}
  117,                                    !- X Origin {m}
  66,                                     !- Y Origin {m}
  0,                                      !- Z Origin {m}
  {7706be27-4082-4c44-abfd-979f50d9e943}, !- Building Story Name
  {6c941ff9-fae6-433d-b9e3-68769d2c1933}, !- Thermal Zone Name
  Yes;                                    !- Part of Total Floor Area

OS:Connection,
  {3c583f04-3d48-4edf-8dc0-727ec1de4fc8}, !- Handle
  ,                                       !- Source Object
  11,                                     !- Outlet Port
  ,                                       !- Target Object
  2;                                      !- Inlet Port

OS:Space,
  {ca77a65a-8c83-47b2-8f2a-9d681b5b657c}, !- Handle
  Corner_Class_1_Pod_2_ZN_1_FLR_1,        !- Name
  {9993251f-78cc-4a26-a604-ddd983d7058e}, !- Space Type Name
  ,                                       !- Default Construction Set Name
  ,                                       !- Default Schedule Set Name
  0,                                      !- Direction of Relative North {deg}
  0,                                      !- X Origin {m}
  40,                                     !- Y Origin {m}
  0,                                      !- Z Origin {m}
  {7706be27-4082-4c44-abfd-979f50d9e943}, !- Building Story Name
  {dcdfe1e3-598f-4baf-9626-f82ce6df1701}, !- Thermal Zone Name
  Yes;                                    !- Part of Total Floor Area

OS:Surface,
  {4b4b6a4c-1a14-40ab-ad3b-d253940966b3}, !- Handle
  Gym_ZN_1_FLR_2_Ceiling,                 !- Name
  RoofCeiling,                            !- Surface Type
  ,                                       !- Construction Name
  {5b6d79a1-ca37-4ac2-86a5-1120aebe4e62}, !- Space Name
  Outdoors,                               !- Outside Boundary Condition
  ,                                       !- Outside Boundary Condition Object
  SunExposed,                             !- Sun Exposure
  WindExposed,                            !- Wind Exposure
  ,                                       !- View Factor to Ground
  ,                                       !- Number of Vertices
  38, 0, 8,                               !- X,Y,Z Vertex 1 {m}
  38, 52, 8,                              !- X,Y,Z Vertex 2 {m}
  0, 52, 8,                               !- X,Y,Z Vertex 3 {m}
  0, 0, 8;                                !- X,Y,Z Vertex 4 {m}

OS:Connection,
  {f6d493f2-07d8-4629-8718-f178beb56343}, !- Handle
  ,                                       !- Source Object
  11,                                     !- Outlet Port
  ,                                       !- Target Object
  2;                                      !- Inlet Port

OS:Space,
  {5b6d79a1-ca37-4ac2-86a5-1120aebe4e62}, !- Handle
  Gym_ZN_1_FLR_1,                         !- Name
  {bd79e126-48af-437e-9856-c90042856854}, !- Space Type Name
  ,                                       !- Default Construction Set Name
  ,                                       !- Default Schedule Set Name
  0,                                      !- Direction of Relative North {deg}
  79,                                     !- X Origin {m}
  14,                                     !- Y Origin {m}
  0,                                      !- Z Origin {m}
  {7706be27-4082-4c44-abfd-979f50d9e943}, !- Building Story Name
  {363042d2-7ec3-4da2-8292-2352a40f4a32}, !- Thermal Zone Name
  Yes;                                    !- Part of Total Floor Area

OS:Surface,
  {52eeee34-1919-4eec-abc4-9285a85be0dc}, !- Handle
  Offices_ZN_1_FLR_1_Wall_1,              !- Name
  Wall,                                   !- Surface Type
  ,                                       !- Construction Name
  {07897017-2f7d-4da1-85cc-9c9ec7088e51}, !- Space Name
  Outdoors,                               !- Outside Boundary Condition
  ,                                       !- Outside Boundary Condition Object
  SunExposed,                             !- Sun Exposure
  WindExposed,                            !- Wind Exposure
  ,                                       !- View Factor to Ground
  ,                                       !- Number of Vertices
  0, 0, 4,                                !- X,Y,Z Vertex 1 {m}
  0, 0, 0,                                !- X,Y,Z Vertex 2 {m}
  38, 0, 0,                               !- X,Y,Z Vertex 3 {m}
  38, 0, 4;                               !- X,Y,Z Vertex 4 {m}

OS:Connection,
  {c28987b0-2c44-497e-bf5c-424849135b68}, !- Handle
  ,                                       !- Source Object
  11,                                     !- Outlet Port
  ,                                       !- Target Object
  2;                                      !- Inlet Port

OS:Space,
  {07897017-2f7d-4da1-85cc-9c9ec7088e51}, !- Handle
  Offices_ZN_1_FLR_1,                     !- Name
  {b713d52c-6e76-4c5e-be9a-ec2d5a46bb19}, !- Space Type Name
  ,                                       !- Default Construction Set Name
  ,                                       !- Default Schedule Set Name
  0,                                      !- Direction of Relative North {deg}
  79,                                     !- X Origin {m}
  0,                                      !- Y Origin {m}
  0,                                      !- Z Origin {m}
  {7706be27-4082-4c44-abfd-979f50d9e943}, !- Building Story Name
  {7fe7ba8e-eb20-43ab-a65c-f6b3e4091a50}, !- Thermal Zone Name
  Yes;                                    !- Part of Total Floor Area

OS:Surface,
  {a82b9ed5-c277-43fb-abe1-8881e66e7591}, !- Handle
  Corridor_Pod_1_ZN_1_FLR_2_Wall_6,       !- Name
  Wall,                                   !- Surface Type
  ,                                       !- Construction Name
  {98a24e6c-59af-448d-bf56-daadacedc0c5}, !- Space Name
  Outdoors,                               !- Outside Boundary Condition
  ,                                       !- Outside Boundary Condition Object
  SunExposed,                             !- Sun Exposure
  WindExposed,                            !- Wind Exposure
  ,                                       !- View Factor to Ground
  ,                                       !- Number of Vertices
  0, 5, 4,                                !- X,Y,Z Vertex 1 {m}
  0, 5, 0,                                !- X,Y,Z Vertex 2 {m}
  0, 0, 0,                                !- X,Y,Z Vertex 3 {m}
  0, 0, 4;                                !- X,Y,Z Vertex 4 {m}

OS:Connection,
  {25d6007f-cdcd-4f8e-ad3d-e752156c3b7c}, !- Handle
  ,                                       !- Source Object
  11,                                     !- Outlet Port
  ,                                       !- Target Object
  2;                                      !- Inlet Port

OS:Space,
  {98a24e6c-59af-448d-bf56-daadacedc0c5}, !- Handle
  Corridor_Pod_1_ZN_1_FLR_2,              !- Name
  {300dfc29-04e8-40c8-ad89-e484c0eba578}, !- Space Type Name
  ,                                       !- Default Construction Set Name
  ,                                       !- Default Schedule Set Name
  0,                                      !- Direction of Relative North {deg}
  0,                                      !- X Origin {m}
  9,                                      !- Y Origin {m}
  4,                                      !- Z Origin {m}
  {4d821eda-b5ee-48d5-86db-89d8b7c292a0}, !- Building Story Name
  {d1c3f048-c0ce-40e8-a659-d000a691d973}, !- Thermal Zone Name
  Yes;                                    !- Part of Total Floor Area

OS:Surface,
  {c1818fb5-6767-489e-b5b5-e765a5cf5ae2}, !- Handle
  Auditorium_ZN_1_FLR_2_Wall_2,           !- Name
  Wall,                                   !- Surface Type
  ,                                       !- Construction Name
  {9afb3bcc-f466-426d-84be-d73696352d8a}, !- Space Name
  Surface,                                !- Outside Boundary Condition
  {5cb2bea6-af2a-4351-9f64-e14feb99ded8}, !- Outside Boundary Condition Object
  NoSun,                                  !- Sun Exposure
  NoWind,                                 !- Wind Exposure
  ,                                       !- View Factor to Ground
  ,                                       !- Number of Vertices
  38, 0, 8,                               !- X,Y,Z Vertex 1 {m}
  38, 0, 4,                               !- X,Y,Z Vertex 2 {m}
  38, 26, 4,                              !- X,Y,Z Vertex 3 {m}
  38, 26, 8;                              !- X,Y,Z Vertex 4 {m}

OS:Connection,
  {8396b6b9-90e6-4144-bc44-e3d23597515e}, !- Handle
  ,                                       !- Source Object
  11,                                     !- Outlet Port
  ,                                       !- Target Object
  2;                                      !- Inlet Port

OS:Space,
  {9afb3bcc-f466-426d-84be-d73696352d8a}, !- Handle
  Auditorium_ZN_1_FLR_1,                  !- Name
  {64236f32-a171-4ad1-9d65-7ffe6ad711c9}, !- Space Type Name
  ,                                       !- Default Construction Set Name
  ,                                       !- Default Schedule Set Name
  0,                                      !- Direction of Relative North {deg}
  79,                                     !- X Origin {m}
  75,                                     !- Y Origin {m}
  0,                                      !- Z Origin {m}
  {7706be27-4082-4c44-abfd-979f50d9e943}, !- Building Story Name
  {d7e32f4b-dd45-49a3-bd3d-dba185720f4d}, !- Thermal Zone Name
  Yes;                                    !- Part of Total Floor Area

OS:Connection,
  {2b0117e1-369f-4c23-b973-5471faf8eb55}, !- Handle
  ,                                       !- Source Object
  11,                                     !- Outlet Port
  ,                                       !- Target Object
  2;                                      !- Inlet Port

OS:Space,
  {9642778a-9cfa-4d96-a768-710240677291}, !- Handle
  LIBRARY_MEDIA_CENTER_ZN_1_FLR_2,        !- Name
  {f2411550-048c-4e5c-8b84-ccc10dfaa694}, !- Space Type Name
  ,                                       !- Default Construction Set Name
  ,                                       !- Default Schedule Set Name
  0,                                      !- Direction of Relative North {deg}
  117,                                    !- X Origin {m}
  66,                                     !- Y Origin {m}
  4,                                      !- Z Origin {m}
  {4d821eda-b5ee-48d5-86db-89d8b7c292a0}, !- Building Story Name
  {5b8c63ca-1c83-4779-b5c2-d1affd06214d}, !- Thermal Zone Name
  Yes;                                    !- Part of Total Floor Area

OS:Surface,
  {b3ccb0a3-6522-43bb-87b1-1127ff5bdecf}, !- Handle
  Mult_Class_2_Pod_2_ZN_1_FLR_1_Wall_3,   !- Name
  Wall,                                   !- Surface Type
  ,                                       !- Construction Name
  {8b1f8f19-8d7c-433c-9ecc-bfb247b3b7d4}, !- Space Name
  Outdoors,                               !- Outside Boundary Condition
  ,                                       !- Outside Boundary Condition Object
  SunExposed,                             !- Sun Exposure
  WindExposed,                            !- Wind Exposure
  ,                                       !- View Factor to Ground
  ,                                       !- Number of Vertices
  53, 9, 4,                               !- X,Y,Z Vertex 1 {m}
  53, 9, 0,                               !- X,Y,Z Vertex 2 {m}
  0, 9, 0,                                !- X,Y,Z Vertex 3 {m}
  0, 9, 4;                                !- X,Y,Z Vertex 4 {m}

OS:Connection,
  {37b79caf-b484-4158-9ca9-8e009289efbf}, !- Handle
  ,                                       !- Source Object
  11,                                     !- Outlet Port
  ,                                       !- Target Object
  2;                                      !- Inlet Port

OS:Space,
  {8b1f8f19-8d7c-433c-9ecc-bfb247b3b7d4}, !- Handle
  Mult_Class_2_Pod_2_ZN_1_FLR_1,          !- Name
  {9993251f-78cc-4a26-a604-ddd983d7058e}, !- Space Type Name
  ,                                       !- Default Construction Set Name
  ,                                       !- Default Schedule Set Name
  0,                                      !- Direction of Relative North {deg}
  11,                                     !- X Origin {m}
  54,                                     !- Y Origin {m}
  0,                                      !- Z Origin {m}
  {7706be27-4082-4c44-abfd-979f50d9e943}, !- Building Story Name
  {944a2fcc-9910-476b-a09c-854a8babff5e}, !- Thermal Zone Name
  Yes;                                    !- Part of Total Floor Area

OS:Surface,
  {35611eec-683e-4c41-a585-bb48caa0a1ed}, !- Handle
  Corridor_Pod_1_ZN_1_FLR_2_Wall_1,       !- Name
  Wall,                                   !- Surface Type
  ,                                       !- Construction Name
  {98a24e6c-59af-448d-bf56-daadacedc0c5}, !- Space Name
  Surface,                                !- Outside Boundary Condition
  {e256f2a1-a05c-4d15-a632-bbce1c1f6e05}, !- Outside Boundary Condition Object
  NoSun,                                  !- Sun Exposure
  NoWind,                                 !- Wind Exposure
  ,                                       !- View Factor to Ground
  ,                                       !- Number of Vertices
  0, 0, 4,                                !- X,Y,Z Vertex 1 {m}
  0, 0, 0,                                !- X,Y,Z Vertex 2 {m}
  11, 0, 0,                               !- X,Y,Z Vertex 3 {m}
  11, 0, 4;                               !- X,Y,Z Vertex 4 {m}

OS:Surface,
  {89fd87b6-ce0e-4e53-82e1-edc9a39bf1aa}, !- Handle
  Aux_Gym_ZN_1_FLR_2_Ceiling,             !- Name
  RoofCeiling,                            !- Surface Type
  ,                                       !- Construction Name
  {8e6e73b2-43d7-4a77-a53a-c3b09d195d59}, !- Space Name
  Outdoors,                               !- Outside Boundary Condition
  ,                                       !- Outside Boundary Condition Object
  SunExposed,                             !- Sun Exposure
  WindExposed,                            !- Wind Exposure
  ,                                       !- View Factor to Ground
  ,                                       !- Number of Vertices
  24, 0, 8,                               !- X,Y,Z Vertex 1 {m}
  24, 52, 8,                              !- X,Y,Z Vertex 2 {m}
  0, 52, 8,                               !- X,Y,Z Vertex 3 {m}
  0, 0, 8;                                !- X,Y,Z Vertex 4 {m}

OS:Connection,
  {25e988c3-0a48-4ba9-a6af-150e7f60c727}, !- Handle
  ,                                       !- Source Object
  11,                                     !- Outlet Port
  ,                                       !- Target Object
  2;                                      !- Inlet Port

OS:Space,
  {8e6e73b2-43d7-4a77-a53a-c3b09d195d59}, !- Handle
  Aux_Gym_ZN_1_FLR_1,                     !- Name
  {bd79e126-48af-437e-9856-c90042856854}, !- Space Type Name
  ,                                       !- Default Construction Set Name
  ,                                       !- Default Schedule Set Name
  0,                                      !- Direction of Relative North {deg}
  117,                                    !- X Origin {m}
  14,                                     !- Y Origin {m}
  0,                                      !- Z Origin {m}
  {7706be27-4082-4c44-abfd-979f50d9e943}, !- Building Story Name
  {866b4809-8406-4fe2-ad2f-beb177f74db4}, !- Thermal Zone Name
  Yes;                                    !- Part of Total Floor Area

OS:Connection,
  {3cc4e9d4-ca63-462c-905c-d275a786593c}, !- Handle
  ,                                       !- Source Object
  11,                                     !- Outlet Port
  ,                                       !- Target Object
  2;                                      !- Inlet Port

OS:Space,
  {b6c86a90-edfc-4e71-b6f9-346cd0a38717}, !- Handle
  Mult_Class_1_Pod_2_ZN_1_FLR_1,          !- Name
  {9993251f-78cc-4a26-a604-ddd983d7058e}, !- Space Type Name
  ,                                       !- Default Construction Set Name
  ,                                       !- Default Schedule Set Name
  0,                                      !- Direction of Relative North {deg}
  11,                                     !- X Origin {m}
  40,                                     !- Y Origin {m}
  0,                                      !- Z Origin {m}
  {7706be27-4082-4c44-abfd-979f50d9e943}, !- Building Story Name
  {581ef470-8b7b-4095-9a80-ae82d092c28a}, !- Thermal Zone Name
  Yes;                                    !- Part of Total Floor Area

OS:Connection,
  {8dab90fd-8296-4c8c-8629-dc48fda4b6dc}, !- Handle
  ,                                       !- Source Object
  11,                                     !- Outlet Port
  ,                                       !- Target Object
  2;                                      !- Inlet Port

OS:Space,
  {dda8118e-5bf7-4453-bed7-34efb3eb3a63}, !- Handle
  Mult_Class_1_Pod_3_ZN_1_FLR_2,          !- Name
  {9993251f-78cc-4a26-a604-ddd983d7058e}, !- Space Type Name
  ,                                       !- Default Construction Set Name
  ,                                       !- Default Schedule Set Name
  0,                                      !- Direction of Relative North {deg}
  11,                                     !- X Origin {m}
  81,                                     !- Y Origin {m}
  4,                                      !- Z Origin {m}
  {4d821eda-b5ee-48d5-86db-89d8b7c292a0}, !- Building Story Name
  {3f1a490c-9333-42cf-b97c-8d73b91703ec}, !- Thermal Zone Name
  Yes;                                    !- Part of Total Floor Area

OS:Connection,
  {4a111ba5-a823-4ad1-bd5b-6bf12c6be0e0}, !- Handle
  ,                                       !- Source Object
  11,                                     !- Outlet Port
  ,                                       !- Target Object
  2;                                      !- Inlet Port

OS:Space,
  {db901331-8783-4932-bbcd-197c7bbbb277}, !- Handle
  Corner_Class_1_Pod_3_ZN_1_FLR_2,        !- Name
  {9993251f-78cc-4a26-a604-ddd983d7058e}, !- Space Type Name
  ,                                       !- Default Construction Set Name
  ,                                       !- Default Schedule Set Name
  0,                                      !- Direction of Relative North {deg}
  0,                                      !- X Origin {m}
  81,                                     !- Y Origin {m}
  4,                                      !- Z Origin {m}
  {4d821eda-b5ee-48d5-86db-89d8b7c292a0}, !- Building Story Name
  {a3c77818-c907-4641-bffb-3141ad1d2b17}, !- Thermal Zone Name
  Yes;                                    !- Part of Total Floor Area

OS:Connection,
  {0655efd8-9472-4083-bf8b-829e473f8697}, !- Handle
  ,                                       !- Source Object
  11,                                     !- Outlet Port
  ,                                       !- Target Object
  2;                                      !- Inlet Port

OS:Space,
  {b7ed1746-e328-4d40-9bf6-a1219420f787}, !- Handle
  Mult_Class_2_Pod_1_ZN_1_FLR_1,          !- Name
  {9993251f-78cc-4a26-a604-ddd983d7058e}, !- Space Type Name
  ,                                       !- Default Construction Set Name
  ,                                       !- Default Schedule Set Name
  0,                                      !- Direction of Relative North {deg}
  11,                                     !- X Origin {m}
  14,                                     !- Y Origin {m}
  0,                                      !- Z Origin {m}
  {7706be27-4082-4c44-abfd-979f50d9e943}, !- Building Story Name
  {944a2fcc-9910-476b-a09c-854a8babff5e}, !- Thermal Zone Name
  Yes;                                    !- Part of Total Floor Area

OS:Surface,
  {4819c532-e832-495b-a819-1a1f219ae064}, !- Handle
  Gym_ZN_1_FLR_2_Wall_2,                  !- Name
  Wall,                                   !- Surface Type
  ,                                       !- Construction Name
  {5b6d79a1-ca37-4ac2-86a5-1120aebe4e62}, !- Space Name
  Surface,                                !- Outside Boundary Condition
  {1c173857-db23-4c45-b490-b9a17752ebf7}, !- Outside Boundary Condition Object
  NoSun,                                  !- Sun Exposure
  NoWind,                                 !- Wind Exposure
  ,                                       !- View Factor to Ground
  ,                                       !- Number of Vertices
  38, 0, 8,                               !- X,Y,Z Vertex 1 {m}
  38, 0, 4,                               !- X,Y,Z Vertex 2 {m}
  38, 52, 4,                              !- X,Y,Z Vertex 3 {m}
  38, 52, 8;                              !- X,Y,Z Vertex 4 {m}

OS:Connection,
  {89c20614-114c-4314-b11f-5ef2417739dd}, !- Handle
  ,                                       !- Source Object
  11,                                     !- Outlet Port
  ,                                       !- Target Object
  2;                                      !- Inlet Port

OS:Space,
  {5636d2ef-32e4-44f0-9333-393e20c4bebf}, !- Handle
  Corner_Class_2_Pod_1_ZN_1_FLR_2,        !- Name
  {9993251f-78cc-4a26-a604-ddd983d7058e}, !- Space Type Name
  ,                                       !- Default Construction Set Name
  ,                                       !- Default Schedule Set Name
  0,                                      !- Direction of Relative North {deg}
  0,                                      !- X Origin {m}
  14,                                     !- Y Origin {m}
  4,                                      !- Z Origin {m}
  {4d821eda-b5ee-48d5-86db-89d8b7c292a0}, !- Building Story Name
  {650ef2cc-193a-4bd5-9f43-c6130d01a853}, !- Thermal Zone Name
  Yes;                                    !- Part of Total Floor Area

OS:Surface,
  {3e08178f-52af-43f0-9272-fda193992b8a}, !- Handle
  Cafeteria_ZN_1_FLR_1_Wall_2,            !- Name
  Wall,                                   !- Surface Type
  ,                                       !- Construction Name
  {4df5e3e9-4558-49e9-b589-cc23916d222a}, !- Space Name
  Outdoors,                               !- Outside Boundary Condition
  ,                                       !- Outside Boundary Condition Object
  SunExposed,                             !- Sun Exposure